# generated using pymatgen
data_LaH10
_symmetry_space_group_name_H-M   'P 1'
_cell_length_a   3.68000000
_cell_length_b   3.68000000
_cell_length_c   504.16000000
_cell_angle_alpha   90.00000000
_cell_angle_beta   90.00000000
_cell_angle_gamma   90.00000000
_symmetry_Int_Tables_number   1
_chemical_formula_structural   LaH10
_chemical_formula_sum   'La137 H1370'
_cell_volume   6827.53638400
_cell_formula_units_Z   137
loop_
 _symmetry_equiv_pos_site_id
 _symmetry_equiv_pos_as_xyz
  1  'x, y, z'
loop_
 _atom_site_type_symbol
 _atom_site_label
 _atom_site_symmetry_multiplicity
 _atom_site_fract_x
 _atom_site_fract_y
 _atom_site_fract_z
 _atom_site_occupancy
  La  La0  1  0.00000000  0.00000000  0.00000000  1
  La  La1  1  0.00000000  0.00000000  0.00729927  1
  La  La2  1  0.00000000  0.00000000  0.01459854  1
  La  La3  1  0.00000000  0.00000000  0.02189781  1
  La  La4  1  0.00000000  0.00000000  0.02919708  1
  La  La5  1  0.00000000  0.00000000  0.03649635  1
  La  La6  1  0.00000000  0.00000000  0.04379562  1
  La  La7  1  0.00000000  0.00000000  0.05109489  1
  La  La8  1  0.00000000  0.00000000  0.05839416  1
  La  La9  1  0.00000000  0.00000000  0.06569343  1
  La  La10  1  0.00000000  0.00000000  0.07299270  1
  La  La11  1  0.00000000  0.00000000  0.08029197  1
  La  La12  1  0.00000000  0.00000000  0.08759124  1
  La  La13  1  0.00000000  0.00000000  0.09489051  1
  La  La14  1  0.00000000  0.00000000  0.10218978  1
  La  La15  1  0.00000000  0.00000000  0.10948905  1
  La  La16  1  0.00000000  0.00000000  0.11678832  1
  La  La17  1  0.00000000  0.00000000  0.12408759  1
  La  La18  1  0.00000000  0.00000000  0.13138686  1
  La  La19  1  0.00000000  0.00000000  0.13868613  1
  La  La20  1  0.00000000  0.00000000  0.14598540  1
  La  La21  1  0.00000000  0.00000000  0.15328467  1
  La  La22  1  0.00000000  0.00000000  0.16058394  1
  La  La23  1  0.00000000  0.00000000  0.16788321  1
  La  La24  1  0.00000000  0.00000000  0.17518248  1
  La  La25  1  0.00000000  0.00000000  0.18248175  1
  La  La26  1  0.00000000  0.00000000  0.18978102  1
  La  La27  1  0.00000000  0.00000000  0.19708029  1
  La  La28  1  0.00000000  0.00000000  0.20437956  1
  La  La29  1  0.00000000  0.00000000  0.21167883  1
  La  La30  1  0.00000000  0.00000000  0.21897810  1
  La  La31  1  0.00000000  0.00000000  0.22627737  1
  La  La32  1  0.00000000  0.00000000  0.23357664  1
  La  La33  1  0.00000000  0.00000000  0.24087591  1
  La  La34  1  0.00000000  0.00000000  0.24817518  1
  La  La35  1  0.00000000  0.00000000  0.25547445  1
  La  La36  1  0.00000000  0.00000000  0.26277372  1
  La  La37  1  0.00000000  0.00000000  0.27007299  1
  La  La38  1  0.00000000  0.00000000  0.27737226  1
  La  La39  1  0.00000000  0.00000000  0.28467153  1
  La  La40  1  0.00000000  0.00000000  0.29197080  1
  La  La41  1  0.00000000  0.00000000  0.29927007  1
  La  La42  1  0.00000000  0.00000000  0.30656934  1
  La  La43  1  0.00000000  0.00000000  0.31386861  1
  La  La44  1  0.00000000  0.00000000  0.32116788  1
  La  La45  1  0.00000000  0.00000000  0.32846715  1
  La  La46  1  0.00000000  0.00000000  0.33576642  1
  La  La47  1  0.00000000  0.00000000  0.34306569  1
  La  La48  1  0.00000000  0.00000000  0.35036496  1
  La  La49  1  0.00000000  0.00000000  0.35766423  1
  La  La50  1  0.00000000  0.00000000  0.36496350  1
  La  La51  1  0.00000000  0.00000000  0.37226277  1
  La  La52  1  0.00000000  0.00000000  0.37956204  1
  La  La53  1  0.00000000  0.00000000  0.38686131  1
  La  La54  1  0.00000000  0.00000000  0.39416058  1
  La  La55  1  0.00000000  0.00000000  0.40145985  1
  La  La56  1  0.00000000  0.00000000  0.40875912  1
  La  La57  1  0.00000000  0.00000000  0.41605839  1
  La  La58  1  0.00000000  0.00000000  0.42335766  1
  La  La59  1  0.00000000  0.00000000  0.43065693  1
  La  La60  1  0.00000000  0.00000000  0.43795620  1
  La  La61  1  0.00000000  0.00000000  0.44525547  1
  La  La62  1  0.00000000  0.00000000  0.45255474  1
  La  La63  1  0.00000000  0.00000000  0.45985401  1
  La  La64  1  0.00000000  0.00000000  0.46715328  1
  La  La65  1  0.00000000  0.00000000  0.47445255  1
  La  La66  1  0.00000000  0.00000000  0.48175182  1
  La  La67  1  0.00000000  0.00000000  0.48905109  1
  La  La68  1  0.00000000  0.00000000  0.49635036  1
  La  La69  1  0.00000000  0.00000000  0.50364964  1
  La  La70  1  0.00000000  0.00000000  0.51094891  1
  La  La71  1  0.00000000  0.00000000  0.51824818  1
  La  La72  1  0.00000000  0.00000000  0.52554745  1
  La  La73  1  0.00000000  0.00000000  0.53284672  1
  La  La74  1  0.00000000  0.00000000  0.54014599  1
  La  La75  1  0.00000000  0.00000000  0.54744526  1
  La  La76  1  0.00000000  0.00000000  0.55474453  1
  La  La77  1  0.00000000  0.00000000  0.56204380  1
  La  La78  1  0.00000000  0.00000000  0.56934307  1
  La  La79  1  0.00000000  0.00000000  0.57664234  1
  La  La80  1  0.00000000  0.00000000  0.58394161  1
  La  La81  1  0.00000000  0.00000000  0.59124088  1
  La  La82  1  0.00000000  0.00000000  0.59854015  1
  La  La83  1  0.00000000  0.00000000  0.60583942  1
  La  La84  1  0.00000000  0.00000000  0.61313869  1
  La  La85  1  0.00000000  0.00000000  0.62043796  1
  La  La86  1  0.00000000  0.00000000  0.62773723  1
  La  La87  1  0.00000000  0.00000000  0.63503650  1
  La  La88  1  0.00000000  0.00000000  0.64233577  1
  La  La89  1  0.00000000  0.00000000  0.64963504  1
  La  La90  1  0.00000000  0.00000000  0.65693431  1
  La  La91  1  0.00000000  0.00000000  0.66423358  1
  La  La92  1  0.00000000  0.00000000  0.67153285  1
  La  La93  1  0.00000000  0.00000000  0.67883212  1
  La  La94  1  0.00000000  0.00000000  0.68613139  1
  La  La95  1  0.00000000  0.00000000  0.69343066  1
  La  La96  1  0.00000000  0.00000000  0.70072993  1
  La  La97  1  0.00000000  0.00000000  0.70802920  1
  La  La98  1  0.00000000  0.00000000  0.71532847  1
  La  La99  1  0.00000000  0.00000000  0.72262774  1
  La  La100  1  0.00000000  0.00000000  0.72992701  1
  La  La101  1  0.00000000  0.00000000  0.73722628  1
  La  La102  1  0.00000000  0.00000000  0.74452555  1
  La  La103  1  0.00000000  0.00000000  0.75182482  1
  La  La104  1  0.00000000  0.00000000  0.75912409  1
  La  La105  1  0.00000000  0.00000000  0.76642336  1
  La  La106  1  0.00000000  0.00000000  0.77372263  1
  La  La107  1  0.00000000  0.00000000  0.78102190  1
  La  La108  1  0.00000000  0.00000000  0.78832117  1
  La  La109  1  0.00000000  0.00000000  0.79562044  1
  La  La110  1  0.00000000  0.00000000  0.80291971  1
  La  La111  1  0.00000000  0.00000000  0.81021898  1
  La  La112  1  0.00000000  0.00000000  0.81751825  1
  La  La113  1  0.00000000  0.00000000  0.82481752  1
  La  La114  1  0.00000000  0.00000000  0.83211679  1
  La  La115  1  0.00000000  0.00000000  0.83941606  1
  La  La116  1  0.00000000  0.00000000  0.84671533  1
  La  La117  1  0.00000000  0.00000000  0.85401460  1
  La  La118  1  0.00000000  0.00000000  0.86131387  1
  La  La119  1  0.00000000  0.00000000  0.86861314  1
  La  La120  1  0.00000000  0.00000000  0.87591241  1
  La  La121  1  0.00000000  0.00000000  0.88321168  1
  La  La122  1  0.00000000  0.00000000  0.89051095  1
  La  La123  1  0.00000000  0.00000000  0.89781022  1
  La  La124  1  0.00000000  0.00000000  0.90510949  1
  La  La125  1  0.00000000  0.00000000  0.91240876  1
  La  La126  1  0.00000000  0.00000000  0.91970803  1
  La  La127  1  0.00000000  0.00000000  0.92700730  1
  La  La128  1  0.00000000  0.00000000  0.93430657  1
  La  La129  1  0.00000000  0.00000000  0.94160584  1
  La  La130  1  0.00000000  0.00000000  0.94890511  1
  La  La131  1  0.00000000  0.00000000  0.95620438  1
  La  La132  1  0.00000000  0.00000000  0.96350365  1
  La  La133  1  0.00000000  0.00000000  0.97080292  1
  La  La134  1  0.00000000  0.00000000  0.97810219  1
  La  La135  1  0.00000000  0.00000000  0.98540146  1
  La  La136  1  0.00000000  0.00000000  0.99270073  1
  H  H137  1  0.50000000  0.00000000  0.00000000  1
  H  H138  1  0.50000000  0.00000000  0.00729927  1
  H  H139  1  0.50000000  0.00000000  0.01459854  1
  H  H140  1  0.50000000  0.00000000  0.02189781  1
  H  H141  1  0.50000000  0.00000000  0.02919708  1
  H  H142  1  0.50000000  0.00000000  0.03649635  1
  H  H143  1  0.50000000  0.00000000  0.04379562  1
  H  H144  1  0.50000000  0.00000000  0.05109489  1
  H  H145  1  0.50000000  0.00000000  0.05839416  1
  H  H146  1  0.50000000  0.00000000  0.06569343  1
  H  H147  1  0.50000000  0.00000000  0.07299270  1
  H  H148  1  0.50000000  0.00000000  0.08029197  1
  H  H149  1  0.50000000  0.00000000  0.08759124  1
  H  H150  1  0.50000000  0.00000000  0.09489051  1
  H  H151  1  0.50000000  0.00000000  0.10218978  1
  H  H152  1  0.50000000  0.00000000  0.10948905  1
  H  H153  1  0.50000000  0.00000000  0.11678832  1
  H  H154  1  0.50000000  0.00000000  0.12408759  1
  H  H155  1  0.50000000  0.00000000  0.13138686  1
  H  H156  1  0.50000000  0.00000000  0.13868613  1
  H  H157  1  0.50000000  0.00000000  0.14598540  1
  H  H158  1  0.50000000  0.00000000  0.15328467  1
  H  H159  1  0.50000000  0.00000000  0.16058394  1
  H  H160  1  0.50000000  0.00000000  0.16788321  1
  H  H161  1  0.50000000  0.00000000  0.17518248  1
  H  H162  1  0.50000000  0.00000000  0.18248175  1
  H  H163  1  0.50000000  0.00000000  0.18978102  1
  H  H164  1  0.50000000  0.00000000  0.19708029  1
  H  H165  1  0.50000000  0.00000000  0.20437956  1
  H  H166  1  0.50000000  0.00000000  0.21167883  1
  H  H167  1  0.50000000  0.00000000  0.21897810  1
  H  H168  1  0.50000000  0.00000000  0.22627737  1
  H  H169  1  0.50000000  0.00000000  0.23357664  1
  H  H170  1  0.50000000  0.00000000  0.24087591  1
  H  H171  1  0.50000000  0.00000000  0.24817518  1
  H  H172  1  0.50000000  0.00000000  0.25547445  1
  H  H173  1  0.50000000  0.00000000  0.26277372  1
  H  H174  1  0.50000000  0.00000000  0.27007299  1
  H  H175  1  0.50000000  0.00000000  0.27737226  1
  H  H176  1  0.50000000  0.00000000  0.28467153  1
  H  H177  1  0.50000000  0.00000000  0.29197080  1
  H  H178  1  0.50000000  0.00000000  0.29927007  1
  H  H179  1  0.50000000  0.00000000  0.30656934  1
  H  H180  1  0.50000000  0.00000000  0.31386861  1
  H  H181  1  0.50000000  0.00000000  0.32116788  1
  H  H182  1  0.50000000  0.00000000  0.32846715  1
  H  H183  1  0.50000000  0.00000000  0.33576642  1
  H  H184  1  0.50000000  0.00000000  0.34306569  1
  H  H185  1  0.50000000  0.00000000  0.35036496  1
  H  H186  1  0.50000000  0.00000000  0.35766423  1
  H  H187  1  0.50000000  0.00000000  0.36496350  1
  H  H188  1  0.50000000  0.00000000  0.37226277  1
  H  H189  1  0.50000000  0.00000000  0.37956204  1
  H  H190  1  0.50000000  0.00000000  0.38686131  1
  H  H191  1  0.50000000  0.00000000  0.39416058  1
  H  H192  1  0.50000000  0.00000000  0.40145985  1
  H  H193  1  0.50000000  0.00000000  0.40875912  1
  H  H194  1  0.50000000  0.00000000  0.41605839  1
  H  H195  1  0.50000000  0.00000000  0.42335766  1
  H  H196  1  0.50000000  0.00000000  0.43065693  1
  H  H197  1  0.50000000  0.00000000  0.43795620  1
  H  H198  1  0.50000000  0.00000000  0.44525547  1
  H  H199  1  0.50000000  0.00000000  0.45255474  1
  H  H200  1  0.50000000  0.00000000  0.45985401  1
  H  H201  1  0.50000000  0.00000000  0.46715328  1
  H  H202  1  0.50000000  0.00000000  0.47445255  1
  H  H203  1  0.50000000  0.00000000  0.48175182  1
  H  H204  1  0.50000000  0.00000000  0.48905109  1
  H  H205  1  0.50000000  0.00000000  0.49635036  1
  H  H206  1  0.50000000  0.00000000  0.50364964  1
  H  H207  1  0.50000000  0.00000000  0.51094891  1
  H  H208  1  0.50000000  0.00000000  0.51824818  1
  H  H209  1  0.50000000  0.00000000  0.52554745  1
  H  H210  1  0.50000000  0.00000000  0.53284672  1
  H  H211  1  0.50000000  0.00000000  0.54014599  1
  H  H212  1  0.50000000  0.00000000  0.54744526  1
  H  H213  1  0.50000000  0.00000000  0.55474453  1
  H  H214  1  0.50000000  0.00000000  0.56204380  1
  H  H215  1  0.50000000  0.00000000  0.56934307  1
  H  H216  1  0.50000000  0.00000000  0.57664234  1
  H  H217  1  0.50000000  0.00000000  0.58394161  1
  H  H218  1  0.50000000  0.00000000  0.59124088  1
  H  H219  1  0.50000000  0.00000000  0.59854015  1
  H  H220  1  0.50000000  0.00000000  0.60583942  1
  H  H221  1  0.50000000  0.00000000  0.61313869  1
  H  H222  1  0.50000000  0.00000000  0.62043796  1
  H  H223  1  0.50000000  0.00000000  0.62773723  1
  H  H224  1  0.50000000  0.00000000  0.63503650  1
  H  H225  1  0.50000000  0.00000000  0.64233577  1
  H  H226  1  0.50000000  0.00000000  0.64963504  1
  H  H227  1  0.50000000  0.00000000  0.65693431  1
  H  H228  1  0.50000000  0.00000000  0.66423358  1
  H  H229  1  0.50000000  0.00000000  0.67153285  1
  H  H230  1  0.50000000  0.00000000  0.67883212  1
  H  H231  1  0.50000000  0.00000000  0.68613139  1
  H  H232  1  0.50000000  0.00000000  0.69343066  1
  H  H233  1  0.50000000  0.00000000  0.70072993  1
  H  H234  1  0.50000000  0.00000000  0.70802920  1
  H  H235  1  0.50000000  0.00000000  0.71532847  1
  H  H236  1  0.50000000  0.00000000  0.72262774  1
  H  H237  1  0.50000000  0.00000000  0.72992701  1
  H  H238  1  0.50000000  0.00000000  0.73722628  1
  H  H239  1  0.50000000  0.00000000  0.74452555  1
  H  H240  1  0.50000000  0.00000000  0.75182482  1
  H  H241  1  0.50000000  0.00000000  0.75912409  1
  H  H242  1  0.50000000  0.00000000  0.76642336  1
  H  H243  1  0.50000000  0.00000000  0.77372263  1
  H  H244  1  0.50000000  0.00000000  0.78102190  1
  H  H245  1  0.50000000  0.00000000  0.78832117  1
  H  H246  1  0.50000000  0.00000000  0.79562044  1
  H  H247  1  0.50000000  0.00000000  0.80291971  1
  H  H248  1  0.50000000  0.00000000  0.81021898  1
  H  H249  1  0.50000000  0.00000000  0.81751825  1
  H  H250  1  0.50000000  0.00000000  0.82481752  1
  H  H251  1  0.50000000  0.00000000  0.83211679  1
  H  H252  1  0.50000000  0.00000000  0.83941606  1
  H  H253  1  0.50000000  0.00000000  0.84671533  1
  H  H254  1  0.50000000  0.00000000  0.85401460  1
  H  H255  1  0.50000000  0.00000000  0.86131387  1
  H  H256  1  0.50000000  0.00000000  0.86861314  1
  H  H257  1  0.50000000  0.00000000  0.87591241  1
  H  H258  1  0.50000000  0.00000000  0.88321168  1
  H  H259  1  0.50000000  0.00000000  0.89051095  1
  H  H260  1  0.50000000  0.00000000  0.89781022  1
  H  H261  1  0.50000000  0.00000000  0.90510949  1
  H  H262  1  0.50000000  0.00000000  0.91240876  1
  H  H263  1  0.50000000  0.00000000  0.91970803  1
  H  H264  1  0.50000000  0.00000000  0.92700730  1
  H  H265  1  0.50000000  0.00000000  0.93430657  1
  H  H266  1  0.50000000  0.00000000  0.94160584  1
  H  H267  1  0.50000000  0.00000000  0.94890511  1
  H  H268  1  0.50000000  0.00000000  0.95620438  1
  H  H269  1  0.50000000  0.00000000  0.96350365  1
  H  H270  1  0.50000000  0.00000000  0.97080292  1
  H  H271  1  0.50000000  0.00000000  0.97810219  1
  H  H272  1  0.50000000  0.00000000  0.98540146  1
  H  H273  1  0.50000000  0.00000000  0.99270073  1
  H  H274  1  0.00000000  0.50000000  0.00000000  1
  H  H275  1  0.00000000  0.50000000  0.00729927  1
  H  H276  1  0.00000000  0.50000000  0.01459854  1
  H  H277  1  0.00000000  0.50000000  0.02189781  1
  H  H278  1  0.00000000  0.50000000  0.02919708  1
  H  H279  1  0.00000000  0.50000000  0.03649635  1
  H  H280  1  0.00000000  0.50000000  0.04379562  1
  H  H281  1  0.00000000  0.50000000  0.05109489  1
  H  H282  1  0.00000000  0.50000000  0.05839416  1
  H  H283  1  0.00000000  0.50000000  0.06569343  1
  H  H284  1  0.00000000  0.50000000  0.07299270  1
  H  H285  1  0.00000000  0.50000000  0.08029197  1
  H  H286  1  0.00000000  0.50000000  0.08759124  1
  H  H287  1  0.00000000  0.50000000  0.09489051  1
  H  H288  1  0.00000000  0.50000000  0.10218978  1
  H  H289  1  0.00000000  0.50000000  0.10948905  1
  H  H290  1  0.00000000  0.50000000  0.11678832  1
  H  H291  1  0.00000000  0.50000000  0.12408759  1
  H  H292  1  0.00000000  0.50000000  0.13138686  1
  H  H293  1  0.00000000  0.50000000  0.13868613  1
  H  H294  1  0.00000000  0.50000000  0.14598540  1
  H  H295  1  0.00000000  0.50000000  0.15328467  1
  H  H296  1  0.00000000  0.50000000  0.16058394  1
  H  H297  1  0.00000000  0.50000000  0.16788321  1
  H  H298  1  0.00000000  0.50000000  0.17518248  1
  H  H299  1  0.00000000  0.50000000  0.18248175  1
  H  H300  1  0.00000000  0.50000000  0.18978102  1
  H  H301  1  0.00000000  0.50000000  0.19708029  1
  H  H302  1  0.00000000  0.50000000  0.20437956  1
  H  H303  1  0.00000000  0.50000000  0.21167883  1
  H  H304  1  0.00000000  0.50000000  0.21897810  1
  H  H305  1  0.00000000  0.50000000  0.22627737  1
  H  H306  1  0.00000000  0.50000000  0.23357664  1
  H  H307  1  0.00000000  0.50000000  0.24087591  1
  H  H308  1  0.00000000  0.50000000  0.24817518  1
  H  H309  1  0.00000000  0.50000000  0.25547445  1
  H  H310  1  0.00000000  0.50000000  0.26277372  1
  H  H311  1  0.00000000  0.50000000  0.27007299  1
  H  H312  1  0.00000000  0.50000000  0.27737226  1
  H  H313  1  0.00000000  0.50000000  0.28467153  1
  H  H314  1  0.00000000  0.50000000  0.29197080  1
  H  H315  1  0.00000000  0.50000000  0.29927007  1
  H  H316  1  0.00000000  0.50000000  0.30656934  1
  H  H317  1  0.00000000  0.50000000  0.31386861  1
  H  H318  1  0.00000000  0.50000000  0.32116788  1
  H  H319  1  0.00000000  0.50000000  0.32846715  1
  H  H320  1  0.00000000  0.50000000  0.33576642  1
  H  H321  1  0.00000000  0.50000000  0.34306569  1
  H  H322  1  0.00000000  0.50000000  0.35036496  1
  H  H323  1  0.00000000  0.50000000  0.35766423  1
  H  H324  1  0.00000000  0.50000000  0.36496350  1
  H  H325  1  0.00000000  0.50000000  0.37226277  1
  H  H326  1  0.00000000  0.50000000  0.37956204  1
  H  H327  1  0.00000000  0.50000000  0.38686131  1
  H  H328  1  0.00000000  0.50000000  0.39416058  1
  H  H329  1  0.00000000  0.50000000  0.40145985  1
  H  H330  1  0.00000000  0.50000000  0.40875912  1
  H  H331  1  0.00000000  0.50000000  0.41605839  1
  H  H332  1  0.00000000  0.50000000  0.42335766  1
  H  H333  1  0.00000000  0.50000000  0.43065693  1
  H  H334  1  0.00000000  0.50000000  0.43795620  1
  H  H335  1  0.00000000  0.50000000  0.44525547  1
  H  H336  1  0.00000000  0.50000000  0.45255474  1
  H  H337  1  0.00000000  0.50000000  0.45985401  1
  H  H338  1  0.00000000  0.50000000  0.46715328  1
  H  H339  1  0.00000000  0.50000000  0.47445255  1
  H  H340  1  0.00000000  0.50000000  0.48175182  1
  H  H341  1  0.00000000  0.50000000  0.48905109  1
  H  H342  1  0.00000000  0.50000000  0.49635036  1
  H  H343  1  0.00000000  0.50000000  0.50364964  1
  H  H344  1  0.00000000  0.50000000  0.51094891  1
  H  H345  1  0.00000000  0.50000000  0.51824818  1
  H  H346  1  0.00000000  0.50000000  0.52554745  1
  H  H347  1  0.00000000  0.50000000  0.53284672  1
  H  H348  1  0.00000000  0.50000000  0.54014599  1
  H  H349  1  0.00000000  0.50000000  0.54744526  1
  H  H350  1  0.00000000  0.50000000  0.55474453  1
  H  H351  1  0.00000000  0.50000000  0.56204380  1
  H  H352  1  0.00000000  0.50000000  0.56934307  1
  H  H353  1  0.00000000  0.50000000  0.57664234  1
  H  H354  1  0.00000000  0.50000000  0.58394161  1
  H  H355  1  0.00000000  0.50000000  0.59124088  1
  H  H356  1  0.00000000  0.50000000  0.59854015  1
  H  H357  1  0.00000000  0.50000000  0.60583942  1
  H  H358  1  0.00000000  0.50000000  0.61313869  1
  H  H359  1  0.00000000  0.50000000  0.62043796  1
  H  H360  1  0.00000000  0.50000000  0.62773723  1
  H  H361  1  0.00000000  0.50000000  0.63503650  1
  H  H362  1  0.00000000  0.50000000  0.64233577  1
  H  H363  1  0.00000000  0.50000000  0.64963504  1
  H  H364  1  0.00000000  0.50000000  0.65693431  1
  H  H365  1  0.00000000  0.50000000  0.66423358  1
  H  H366  1  0.00000000  0.50000000  0.67153285  1
  H  H367  1  0.00000000  0.50000000  0.67883212  1
  H  H368  1  0.00000000  0.50000000  0.68613139  1
  H  H369  1  0.00000000  0.50000000  0.69343066  1
  H  H370  1  0.00000000  0.50000000  0.70072993  1
  H  H371  1  0.00000000  0.50000000  0.70802920  1
  H  H372  1  0.00000000  0.50000000  0.71532847  1
  H  H373  1  0.00000000  0.50000000  0.72262774  1
  H  H374  1  0.00000000  0.50000000  0.72992701  1
  H  H375  1  0.00000000  0.50000000  0.73722628  1
  H  H376  1  0.00000000  0.50000000  0.74452555  1
  H  H377  1  0.00000000  0.50000000  0.75182482  1
  H  H378  1  0.00000000  0.50000000  0.75912409  1
  H  H379  1  0.00000000  0.50000000  0.76642336  1
  H  H380  1  0.00000000  0.50000000  0.77372263  1
  H  H381  1  0.00000000  0.50000000  0.78102190  1
  H  H382  1  0.00000000  0.50000000  0.78832117  1
  H  H383  1  0.00000000  0.50000000  0.79562044  1
  H  H384  1  0.00000000  0.50000000  0.80291971  1
  H  H385  1  0.00000000  0.50000000  0.81021898  1
  H  H386  1  0.00000000  0.50000000  0.81751825  1
  H  H387  1  0.00000000  0.50000000  0.82481752  1
  H  H388  1  0.00000000  0.50000000  0.83211679  1
  H  H389  1  0.00000000  0.50000000  0.83941606  1
  H  H390  1  0.00000000  0.50000000  0.84671533  1
  H  H391  1  0.00000000  0.50000000  0.85401460  1
  H  H392  1  0.00000000  0.50000000  0.86131387  1
  H  H393  1  0.00000000  0.50000000  0.86861314  1
  H  H394  1  0.00000000  0.50000000  0.87591241  1
  H  H395  1  0.00000000  0.50000000  0.88321168  1
  H  H396  1  0.00000000  0.50000000  0.89051095  1
  H  H397  1  0.00000000  0.50000000  0.89781022  1
  H  H398  1  0.00000000  0.50000000  0.90510949  1
  H  H399  1  0.00000000  0.50000000  0.91240876  1
  H  H400  1  0.00000000  0.50000000  0.91970803  1
  H  H401  1  0.00000000  0.50000000  0.92700730  1
  H  H402  1  0.00000000  0.50000000  0.93430657  1
  H  H403  1  0.00000000  0.50000000  0.94160584  1
  H  H404  1  0.00000000  0.50000000  0.94890511  1
  H  H405  1  0.00000000  0.50000000  0.95620438  1
  H  H406  1  0.00000000  0.50000000  0.96350365  1
  H  H407  1  0.00000000  0.50000000  0.97080292  1
  H  H408  1  0.00000000  0.50000000  0.97810219  1
  H  H409  1  0.00000000  0.50000000  0.98540146  1
  H  H410  1  0.00000000  0.50000000  0.99270073  1
  H  H411  1  0.00000000  0.00000000  0.00364964  1
  H  H412  1  0.00000000  0.00000000  0.01094891  1
  H  H413  1  0.00000000  0.00000000  0.01824818  1
  H  H414  1  0.00000000  0.00000000  0.02554745  1
  H  H415  1  0.00000000  0.00000000  0.03284672  1
  H  H416  1  0.00000000  0.00000000  0.04014599  1
  H  H417  1  0.00000000  0.00000000  0.04744526  1
  H  H418  1  0.00000000  0.00000000  0.05474453  1
  H  H419  1  0.00000000  0.00000000  0.06204380  1
  H  H420  1  0.00000000  0.00000000  0.06934307  1
  H  H421  1  0.00000000  0.00000000  0.07664234  1
  H  H422  1  0.00000000  0.00000000  0.08394161  1
  H  H423  1  0.00000000  0.00000000  0.09124088  1
  H  H424  1  0.00000000  0.00000000  0.09854015  1
  H  H425  1  0.00000000  0.00000000  0.10583942  1
  H  H426  1  0.00000000  0.00000000  0.11313869  1
  H  H427  1  0.00000000  0.00000000  0.12043796  1
  H  H428  1  0.00000000  0.00000000  0.12773723  1
  H  H429  1  0.00000000  0.00000000  0.13503650  1
  H  H430  1  0.00000000  0.00000000  0.14233577  1
  H  H431  1  0.00000000  0.00000000  0.14963504  1
  H  H432  1  0.00000000  0.00000000  0.15693431  1
  H  H433  1  0.00000000  0.00000000  0.16423358  1
  H  H434  1  0.00000000  0.00000000  0.17153285  1
  H  H435  1  0.00000000  0.00000000  0.17883212  1
  H  H436  1  0.00000000  0.00000000  0.18613139  1
  H  H437  1  0.00000000  0.00000000  0.19343066  1
  H  H438  1  0.00000000  0.00000000  0.20072993  1
  H  H439  1  0.00000000  0.00000000  0.20802920  1
  H  H440  1  0.00000000  0.00000000  0.21532847  1
  H  H441  1  0.00000000  0.00000000  0.22262774  1
  H  H442  1  0.00000000  0.00000000  0.22992701  1
  H  H443  1  0.00000000  0.00000000  0.23722628  1
  H  H444  1  0.00000000  0.00000000  0.24452555  1
  H  H445  1  0.00000000  0.00000000  0.25182482  1
  H  H446  1  0.00000000  0.00000000  0.25912409  1
  H  H447  1  0.00000000  0.00000000  0.26642336  1
  H  H448  1  0.00000000  0.00000000  0.27372263  1
  H  H449  1  0.00000000  0.00000000  0.28102190  1
  H  H450  1  0.00000000  0.00000000  0.28832117  1
  H  H451  1  0.00000000  0.00000000  0.29562044  1
  H  H452  1  0.00000000  0.00000000  0.30291971  1
  H  H453  1  0.00000000  0.00000000  0.31021898  1
  H  H454  1  0.00000000  0.00000000  0.31751825  1
  H  H455  1  0.00000000  0.00000000  0.32481752  1
  H  H456  1  0.00000000  0.00000000  0.33211679  1
  H  H457  1  0.00000000  0.00000000  0.33941606  1
  H  H458  1  0.00000000  0.00000000  0.34671533  1
  H  H459  1  0.00000000  0.00000000  0.35401460  1
  H  H460  1  0.00000000  0.00000000  0.36131387  1
  H  H461  1  0.00000000  0.00000000  0.36861314  1
  H  H462  1  0.00000000  0.00000000  0.37591241  1
  H  H463  1  0.00000000  0.00000000  0.38321168  1
  H  H464  1  0.00000000  0.00000000  0.39051095  1
  H  H465  1  0.00000000  0.00000000  0.39781022  1
  H  H466  1  0.00000000  0.00000000  0.40510949  1
  H  H467  1  0.00000000  0.00000000  0.41240876  1
  H  H468  1  0.00000000  0.00000000  0.41970803  1
  H  H469  1  0.00000000  0.00000000  0.42700730  1
  H  H470  1  0.00000000  0.00000000  0.43430657  1
  H  H471  1  0.00000000  0.00000000  0.44160584  1
  H  H472  1  0.00000000  0.00000000  0.44890511  1
  H  H473  1  0.00000000  0.00000000  0.45620438  1
  H  H474  1  0.00000000  0.00000000  0.46350365  1
  H  H475  1  0.00000000  0.00000000  0.47080292  1
  H  H476  1  0.00000000  0.00000000  0.47810219  1
  H  H477  1  0.00000000  0.00000000  0.48540146  1
  H  H478  1  0.00000000  0.00000000  0.49270073  1
  H  H479  1  0.00000000  0.00000000  0.50000000  1
  H  H480  1  0.00000000  0.00000000  0.50729927  1
  H  H481  1  0.00000000  0.00000000  0.51459854  1
  H  H482  1  0.00000000  0.00000000  0.52189781  1
  H  H483  1  0.00000000  0.00000000  0.52919708  1
  H  H484  1  0.00000000  0.00000000  0.53649635  1
  H  H485  1  0.00000000  0.00000000  0.54379562  1
  H  H486  1  0.00000000  0.00000000  0.55109489  1
  H  H487  1  0.00000000  0.00000000  0.55839416  1
  H  H488  1  0.00000000  0.00000000  0.56569343  1
  H  H489  1  0.00000000  0.00000000  0.57299270  1
  H  H490  1  0.00000000  0.00000000  0.58029197  1
  H  H491  1  0.00000000  0.00000000  0.58759124  1
  H  H492  1  0.00000000  0.00000000  0.59489051  1
  H  H493  1  0.00000000  0.00000000  0.60218978  1
  H  H494  1  0.00000000  0.00000000  0.60948905  1
  H  H495  1  0.00000000  0.00000000  0.61678832  1
  H  H496  1  0.00000000  0.00000000  0.62408759  1
  H  H497  1  0.00000000  0.00000000  0.63138686  1
  H  H498  1  0.00000000  0.00000000  0.63868613  1
  H  H499  1  0.00000000  0.00000000  0.64598540  1
  H  H500  1  0.00000000  0.00000000  0.65328467  1
  H  H501  1  0.00000000  0.00000000  0.66058394  1
  H  H502  1  0.00000000  0.00000000  0.66788321  1
  H  H503  1  0.00000000  0.00000000  0.67518248  1
  H  H504  1  0.00000000  0.00000000  0.68248175  1
  H  H505  1  0.00000000  0.00000000  0.68978102  1
  H  H506  1  0.00000000  0.00000000  0.69708029  1
  H  H507  1  0.00000000  0.00000000  0.70437956  1
  H  H508  1  0.00000000  0.00000000  0.71167883  1
  H  H509  1  0.00000000  0.00000000  0.71897810  1
  H  H510  1  0.00000000  0.00000000  0.72627737  1
  H  H511  1  0.00000000  0.00000000  0.73357664  1
  H  H512  1  0.00000000  0.00000000  0.74087591  1
  H  H513  1  0.00000000  0.00000000  0.74817518  1
  H  H514  1  0.00000000  0.00000000  0.75547445  1
  H  H515  1  0.00000000  0.00000000  0.76277372  1
  H  H516  1  0.00000000  0.00000000  0.77007299  1
  H  H517  1  0.00000000  0.00000000  0.77737226  1
  H  H518  1  0.00000000  0.00000000  0.78467153  1
  H  H519  1  0.00000000  0.00000000  0.79197080  1
  H  H520  1  0.00000000  0.00000000  0.79927007  1
  H  H521  1  0.00000000  0.00000000  0.80656934  1
  H  H522  1  0.00000000  0.00000000  0.81386861  1
  H  H523  1  0.00000000  0.00000000  0.82116788  1
  H  H524  1  0.00000000  0.00000000  0.82846715  1
  H  H525  1  0.00000000  0.00000000  0.83576642  1
  H  H526  1  0.00000000  0.00000000  0.84306569  1
  H  H527  1  0.00000000  0.00000000  0.85036496  1
  H  H528  1  0.00000000  0.00000000  0.85766423  1
  H  H529  1  0.00000000  0.00000000  0.86496350  1
  H  H530  1  0.00000000  0.00000000  0.87226277  1
  H  H531  1  0.00000000  0.00000000  0.87956204  1
  H  H532  1  0.00000000  0.00000000  0.88686131  1
  H  H533  1  0.00000000  0.00000000  0.89416058  1
  H  H534  1  0.00000000  0.00000000  0.90145985  1
  H  H535  1  0.00000000  0.00000000  0.90875912  1
  H  H536  1  0.00000000  0.00000000  0.91605839  1
  H  H537  1  0.00000000  0.00000000  0.92335766  1
  H  H538  1  0.00000000  0.00000000  0.93065693  1
  H  H539  1  0.00000000  0.00000000  0.93795620  1
  H  H540  1  0.00000000  0.00000000  0.94525547  1
  H  H541  1  0.00000000  0.00000000  0.95255474  1
  H  H542  1  0.00000000  0.00000000  0.95985401  1
  H  H543  1  0.00000000  0.00000000  0.96715328  1
  H  H544  1  0.00000000  0.00000000  0.97445255  1
  H  H545  1  0.00000000  0.00000000  0.98175182  1
  H  H546  1  0.00000000  0.00000000  0.98905109  1
  H  H547  1  0.00000000  0.00000000  0.99635036  1
  H  H548  1  0.50000000  0.50000000  0.00000000  1
  H  H549  1  0.50000000  0.50000000  0.00729927  1
  H  H550  1  0.50000000  0.50000000  0.01459854  1
  H  H551  1  0.50000000  0.50000000  0.02189781  1
  H  H552  1  0.50000000  0.50000000  0.02919708  1
  H  H553  1  0.50000000  0.50000000  0.03649635  1
  H  H554  1  0.50000000  0.50000000  0.04379562  1
  H  H555  1  0.50000000  0.50000000  0.05109489  1
  H  H556  1  0.50000000  0.50000000  0.05839416  1
  H  H557  1  0.50000000  0.50000000  0.06569343  1
  H  H558  1  0.50000000  0.50000000  0.07299270  1
  H  H559  1  0.50000000  0.50000000  0.08029197  1
  H  H560  1  0.50000000  0.50000000  0.08759124  1
  H  H561  1  0.50000000  0.50000000  0.09489051  1
  H  H562  1  0.50000000  0.50000000  0.10218978  1
  H  H563  1  0.50000000  0.50000000  0.10948905  1
  H  H564  1  0.50000000  0.50000000  0.11678832  1
  H  H565  1  0.50000000  0.50000000  0.12408759  1
  H  H566  1  0.50000000  0.50000000  0.13138686  1
  H  H567  1  0.50000000  0.50000000  0.13868613  1
  H  H568  1  0.50000000  0.50000000  0.14598540  1
  H  H569  1  0.50000000  0.50000000  0.15328467  1
  H  H570  1  0.50000000  0.50000000  0.16058394  1
  H  H571  1  0.50000000  0.50000000  0.16788321  1
  H  H572  1  0.50000000  0.50000000  0.17518248  1
  H  H573  1  0.50000000  0.50000000  0.18248175  1
  H  H574  1  0.50000000  0.50000000  0.18978102  1
  H  H575  1  0.50000000  0.50000000  0.19708029  1
  H  H576  1  0.50000000  0.50000000  0.20437956  1
  H  H577  1  0.50000000  0.50000000  0.21167883  1
  H  H578  1  0.50000000  0.50000000  0.21897810  1
  H  H579  1  0.50000000  0.50000000  0.22627737  1
  H  H580  1  0.50000000  0.50000000  0.23357664  1
  H  H581  1  0.50000000  0.50000000  0.24087591  1
  H  H582  1  0.50000000  0.50000000  0.24817518  1
  H  H583  1  0.50000000  0.50000000  0.25547445  1
  H  H584  1  0.50000000  0.50000000  0.26277372  1
  H  H585  1  0.50000000  0.50000000  0.27007299  1
  H  H586  1  0.50000000  0.50000000  0.27737226  1
  H  H587  1  0.50000000  0.50000000  0.28467153  1
  H  H588  1  0.50000000  0.50000000  0.29197080  1
  H  H589  1  0.50000000  0.50000000  0.29927007  1
  H  H590  1  0.50000000  0.50000000  0.30656934  1
  H  H591  1  0.50000000  0.50000000  0.31386861  1
  H  H592  1  0.50000000  0.50000000  0.32116788  1
  H  H593  1  0.50000000  0.50000000  0.32846715  1
  H  H594  1  0.50000000  0.50000000  0.33576642  1
  H  H595  1  0.50000000  0.50000000  0.34306569  1
  H  H596  1  0.50000000  0.50000000  0.35036496  1
  H  H597  1  0.50000000  0.50000000  0.35766423  1
  H  H598  1  0.50000000  0.50000000  0.36496350  1
  H  H599  1  0.50000000  0.50000000  0.37226277  1
  H  H600  1  0.50000000  0.50000000  0.37956204  1
  H  H601  1  0.50000000  0.50000000  0.38686131  1
  H  H602  1  0.50000000  0.50000000  0.39416058  1
  H  H603  1  0.50000000  0.50000000  0.40145985  1
  H  H604  1  0.50000000  0.50000000  0.40875912  1
  H  H605  1  0.50000000  0.50000000  0.41605839  1
  H  H606  1  0.50000000  0.50000000  0.42335766  1
  H  H607  1  0.50000000  0.50000000  0.43065693  1
  H  H608  1  0.50000000  0.50000000  0.43795620  1
  H  H609  1  0.50000000  0.50000000  0.44525547  1
  H  H610  1  0.50000000  0.50000000  0.45255474  1
  H  H611  1  0.50000000  0.50000000  0.45985401  1
  H  H612  1  0.50000000  0.50000000  0.46715328  1
  H  H613  1  0.50000000  0.50000000  0.47445255  1
  H  H614  1  0.50000000  0.50000000  0.48175182  1
  H  H615  1  0.50000000  0.50000000  0.48905109  1
  H  H616  1  0.50000000  0.50000000  0.49635036  1
  H  H617  1  0.50000000  0.50000000  0.50364964  1
  H  H618  1  0.50000000  0.50000000  0.51094891  1
  H  H619  1  0.50000000  0.50000000  0.51824818  1
  H  H620  1  0.50000000  0.50000000  0.52554745  1
  H  H621  1  0.50000000  0.50000000  0.53284672  1
  H  H622  1  0.50000000  0.50000000  0.54014599  1
  H  H623  1  0.50000000  0.50000000  0.54744526  1
  H  H624  1  0.50000000  0.50000000  0.55474453  1
  H  H625  1  0.50000000  0.50000000  0.56204380  1
  H  H626  1  0.50000000  0.50000000  0.56934307  1
  H  H627  1  0.50000000  0.50000000  0.57664234  1
  H  H628  1  0.50000000  0.50000000  0.58394161  1
  H  H629  1  0.50000000  0.50000000  0.59124088  1
  H  H630  1  0.50000000  0.50000000  0.59854015  1
  H  H631  1  0.50000000  0.50000000  0.60583942  1
  H  H632  1  0.50000000  0.50000000  0.61313869  1
  H  H633  1  0.50000000  0.50000000  0.62043796  1
  H  H634  1  0.50000000  0.50000000  0.62773723  1
  H  H635  1  0.50000000  0.50000000  0.63503650  1
  H  H636  1  0.50000000  0.50000000  0.64233577  1
  H  H637  1  0.50000000  0.50000000  0.64963504  1
  H  H638  1  0.50000000  0.50000000  0.65693431  1
  H  H639  1  0.50000000  0.50000000  0.66423358  1
  H  H640  1  0.50000000  0.50000000  0.67153285  1
  H  H641  1  0.50000000  0.50000000  0.67883212  1
  H  H642  1  0.50000000  0.50000000  0.68613139  1
  H  H643  1  0.50000000  0.50000000  0.69343066  1
  H  H644  1  0.50000000  0.50000000  0.70072993  1
  H  H645  1  0.50000000  0.50000000  0.70802920  1
  H  H646  1  0.50000000  0.50000000  0.71532847  1
  H  H647  1  0.50000000  0.50000000  0.72262774  1
  H  H648  1  0.50000000  0.50000000  0.72992701  1
  H  H649  1  0.50000000  0.50000000  0.73722628  1
  H  H650  1  0.50000000  0.50000000  0.74452555  1
  H  H651  1  0.50000000  0.50000000  0.75182482  1
  H  H652  1  0.50000000  0.50000000  0.75912409  1
  H  H653  1  0.50000000  0.50000000  0.76642336  1
  H  H654  1  0.50000000  0.50000000  0.77372263  1
  H  H655  1  0.50000000  0.50000000  0.78102190  1
  H  H656  1  0.50000000  0.50000000  0.78832117  1
  H  H657  1  0.50000000  0.50000000  0.79562044  1
  H  H658  1  0.50000000  0.50000000  0.80291971  1
  H  H659  1  0.50000000  0.50000000  0.81021898  1
  H  H660  1  0.50000000  0.50000000  0.81751825  1
  H  H661  1  0.50000000  0.50000000  0.82481752  1
  H  H662  1  0.50000000  0.50000000  0.83211679  1
  H  H663  1  0.50000000  0.50000000  0.83941606  1
  H  H664  1  0.50000000  0.50000000  0.84671533  1
  H  H665  1  0.50000000  0.50000000  0.85401460  1
  H  H666  1  0.50000000  0.50000000  0.86131387  1
  H  H667  1  0.50000000  0.50000000  0.86861314  1
  H  H668  1  0.50000000  0.50000000  0.87591241  1
  H  H669  1  0.50000000  0.50000000  0.88321168  1
  H  H670  1  0.50000000  0.50000000  0.89051095  1
  H  H671  1  0.50000000  0.50000000  0.89781022  1
  H  H672  1  0.50000000  0.50000000  0.90510949  1
  H  H673  1  0.50000000  0.50000000  0.91240876  1
  H  H674  1  0.50000000  0.50000000  0.91970803  1
  H  H675  1  0.50000000  0.50000000  0.92700730  1
  H  H676  1  0.50000000  0.50000000  0.93430657  1
  H  H677  1  0.50000000  0.50000000  0.94160584  1
  H  H678  1  0.50000000  0.50000000  0.94890511  1
  H  H679  1  0.50000000  0.50000000  0.95620438  1
  H  H680  1  0.50000000  0.50000000  0.96350365  1
  H  H681  1  0.50000000  0.50000000  0.97080292  1
  H  H682  1  0.50000000  0.50000000  0.97810219  1
  H  H683  1  0.50000000  0.50000000  0.98540146  1
  H  H684  1  0.50000000  0.50000000  0.99270073  1
  H  H685  1  0.50000000  0.00000000  0.00364964  1
  H  H686  1  0.50000000  0.00000000  0.01094891  1
  H  H687  1  0.50000000  0.00000000  0.01824818  1
  H  H688  1  0.50000000  0.00000000  0.02554745  1
  H  H689  1  0.50000000  0.00000000  0.03284672  1
  H  H690  1  0.50000000  0.00000000  0.04014599  1
  H  H691  1  0.50000000  0.00000000  0.04744526  1
  H  H692  1  0.50000000  0.00000000  0.05474453  1
  H  H693  1  0.50000000  0.00000000  0.06204380  1
  H  H694  1  0.50000000  0.00000000  0.06934307  1
  H  H695  1  0.50000000  0.00000000  0.07664234  1
  H  H696  1  0.50000000  0.00000000  0.08394161  1
  H  H697  1  0.50000000  0.00000000  0.09124088  1
  H  H698  1  0.50000000  0.00000000  0.09854015  1
  H  H699  1  0.50000000  0.00000000  0.10583942  1
  H  H700  1  0.50000000  0.00000000  0.11313869  1
  H  H701  1  0.50000000  0.00000000  0.12043796  1
  H  H702  1  0.50000000  0.00000000  0.12773723  1
  H  H703  1  0.50000000  0.00000000  0.13503650  1
  H  H704  1  0.50000000  0.00000000  0.14233577  1
  H  H705  1  0.50000000  0.00000000  0.14963504  1
  H  H706  1  0.50000000  0.00000000  0.15693431  1
  H  H707  1  0.50000000  0.00000000  0.16423358  1
  H  H708  1  0.50000000  0.00000000  0.17153285  1
  H  H709  1  0.50000000  0.00000000  0.17883212  1
  H  H710  1  0.50000000  0.00000000  0.18613139  1
  H  H711  1  0.50000000  0.00000000  0.19343066  1
  H  H712  1  0.50000000  0.00000000  0.20072993  1
  H  H713  1  0.50000000  0.00000000  0.20802920  1
  H  H714  1  0.50000000  0.00000000  0.21532847  1
  H  H715  1  0.50000000  0.00000000  0.22262774  1
  H  H716  1  0.50000000  0.00000000  0.22992701  1
  H  H717  1  0.50000000  0.00000000  0.23722628  1
  H  H718  1  0.50000000  0.00000000  0.24452555  1
  H  H719  1  0.50000000  0.00000000  0.25182482  1
  H  H720  1  0.50000000  0.00000000  0.25912409  1
  H  H721  1  0.50000000  0.00000000  0.26642336  1
  H  H722  1  0.50000000  0.00000000  0.27372263  1
  H  H723  1  0.50000000  0.00000000  0.28102190  1
  H  H724  1  0.50000000  0.00000000  0.28832117  1
  H  H725  1  0.50000000  0.00000000  0.29562044  1
  H  H726  1  0.50000000  0.00000000  0.30291971  1
  H  H727  1  0.50000000  0.00000000  0.31021898  1
  H  H728  1  0.50000000  0.00000000  0.31751825  1
  H  H729  1  0.50000000  0.00000000  0.32481752  1
  H  H730  1  0.50000000  0.00000000  0.33211679  1
  H  H731  1  0.50000000  0.00000000  0.33941606  1
  H  H732  1  0.50000000  0.00000000  0.34671533  1
  H  H733  1  0.50000000  0.00000000  0.35401460  1
  H  H734  1  0.50000000  0.00000000  0.36131387  1
  H  H735  1  0.50000000  0.00000000  0.36861314  1
  H  H736  1  0.50000000  0.00000000  0.37591241  1
  H  H737  1  0.50000000  0.00000000  0.38321168  1
  H  H738  1  0.50000000  0.00000000  0.39051095  1
  H  H739  1  0.50000000  0.00000000  0.39781022  1
  H  H740  1  0.50000000  0.00000000  0.40510949  1
  H  H741  1  0.50000000  0.00000000  0.41240876  1
  H  H742  1  0.50000000  0.00000000  0.41970803  1
  H  H743  1  0.50000000  0.00000000  0.42700730  1
  H  H744  1  0.50000000  0.00000000  0.43430657  1
  H  H745  1  0.50000000  0.00000000  0.44160584  1
  H  H746  1  0.50000000  0.00000000  0.44890511  1
  H  H747  1  0.50000000  0.00000000  0.45620438  1
  H  H748  1  0.50000000  0.00000000  0.46350365  1
  H  H749  1  0.50000000  0.00000000  0.47080292  1
  H  H750  1  0.50000000  0.00000000  0.47810219  1
  H  H751  1  0.50000000  0.00000000  0.48540146  1
  H  H752  1  0.50000000  0.00000000  0.49270073  1
  H  H753  1  0.50000000  0.00000000  0.50000000  1
  H  H754  1  0.50000000  0.00000000  0.50729927  1
  H  H755  1  0.50000000  0.00000000  0.51459854  1
  H  H756  1  0.50000000  0.00000000  0.52189781  1
  H  H757  1  0.50000000  0.00000000  0.52919708  1
  H  H758  1  0.50000000  0.00000000  0.53649635  1
  H  H759  1  0.50000000  0.00000000  0.54379562  1
  H  H760  1  0.50000000  0.00000000  0.55109489  1
  H  H761  1  0.50000000  0.00000000  0.55839416  1
  H  H762  1  0.50000000  0.00000000  0.56569343  1
  H  H763  1  0.50000000  0.00000000  0.57299270  1
  H  H764  1  0.50000000  0.00000000  0.58029197  1
  H  H765  1  0.50000000  0.00000000  0.58759124  1
  H  H766  1  0.50000000  0.00000000  0.59489051  1
  H  H767  1  0.50000000  0.00000000  0.60218978  1
  H  H768  1  0.50000000  0.00000000  0.60948905  1
  H  H769  1  0.50000000  0.00000000  0.61678832  1
  H  H770  1  0.50000000  0.00000000  0.62408759  1
  H  H771  1  0.50000000  0.00000000  0.63138686  1
  H  H772  1  0.50000000  0.00000000  0.63868613  1
  H  H773  1  0.50000000  0.00000000  0.64598540  1
  H  H774  1  0.50000000  0.00000000  0.65328467  1
  H  H775  1  0.50000000  0.00000000  0.66058394  1
  H  H776  1  0.50000000  0.00000000  0.66788321  1
  H  H777  1  0.50000000  0.00000000  0.67518248  1
  H  H778  1  0.50000000  0.00000000  0.68248175  1
  H  H779  1  0.50000000  0.00000000  0.68978102  1
  H  H780  1  0.50000000  0.00000000  0.69708029  1
  H  H781  1  0.50000000  0.00000000  0.70437956  1
  H  H782  1  0.50000000  0.00000000  0.71167883  1
  H  H783  1  0.50000000  0.00000000  0.71897810  1
  H  H784  1  0.50000000  0.00000000  0.72627737  1
  H  H785  1  0.50000000  0.00000000  0.73357664  1
  H  H786  1  0.50000000  0.00000000  0.74087591  1
  H  H787  1  0.50000000  0.00000000  0.74817518  1
  H  H788  1  0.50000000  0.00000000  0.75547445  1
  H  H789  1  0.50000000  0.00000000  0.76277372  1
  H  H790  1  0.50000000  0.00000000  0.77007299  1
  H  H791  1  0.50000000  0.00000000  0.77737226  1
  H  H792  1  0.50000000  0.00000000  0.78467153  1
  H  H793  1  0.50000000  0.00000000  0.79197080  1
  H  H794  1  0.50000000  0.00000000  0.79927007  1
  H  H795  1  0.50000000  0.00000000  0.80656934  1
  H  H796  1  0.50000000  0.00000000  0.81386861  1
  H  H797  1  0.50000000  0.00000000  0.82116788  1
  H  H798  1  0.50000000  0.00000000  0.82846715  1
  H  H799  1  0.50000000  0.00000000  0.83576642  1
  H  H800  1  0.50000000  0.00000000  0.84306569  1
  H  H801  1  0.50000000  0.00000000  0.85036496  1
  H  H802  1  0.50000000  0.00000000  0.85766423  1
  H  H803  1  0.50000000  0.00000000  0.86496350  1
  H  H804  1  0.50000000  0.00000000  0.87226277  1
  H  H805  1  0.50000000  0.00000000  0.87956204  1
  H  H806  1  0.50000000  0.00000000  0.88686131  1
  H  H807  1  0.50000000  0.00000000  0.89416058  1
  H  H808  1  0.50000000  0.00000000  0.90145985  1
  H  H809  1  0.50000000  0.00000000  0.90875912  1
  H  H810  1  0.50000000  0.00000000  0.91605839  1
  H  H811  1  0.50000000  0.00000000  0.92335766  1
  H  H812  1  0.50000000  0.00000000  0.93065693  1
  H  H813  1  0.50000000  0.00000000  0.93795620  1
  H  H814  1  0.50000000  0.00000000  0.94525547  1
  H  H815  1  0.50000000  0.00000000  0.95255474  1
  H  H816  1  0.50000000  0.00000000  0.95985401  1
  H  H817  1  0.50000000  0.00000000  0.96715328  1
  H  H818  1  0.50000000  0.00000000  0.97445255  1
  H  H819  1  0.50000000  0.00000000  0.98175182  1
  H  H820  1  0.50000000  0.00000000  0.98905109  1
  H  H821  1  0.50000000  0.00000000  0.99635036  1
  H  H822  1  0.00000000  0.50000000  0.00364964  1
  H  H823  1  0.00000000  0.50000000  0.01094891  1
  H  H824  1  0.00000000  0.50000000  0.01824818  1
  H  H825  1  0.00000000  0.50000000  0.02554745  1
  H  H826  1  0.00000000  0.50000000  0.03284672  1
  H  H827  1  0.00000000  0.50000000  0.04014599  1
  H  H828  1  0.00000000  0.50000000  0.04744526  1
  H  H829  1  0.00000000  0.50000000  0.05474453  1
  H  H830  1  0.00000000  0.50000000  0.06204380  1
  H  H831  1  0.00000000  0.50000000  0.06934307  1
  H  H832  1  0.00000000  0.50000000  0.07664234  1
  H  H833  1  0.00000000  0.50000000  0.08394161  1
  H  H834  1  0.00000000  0.50000000  0.09124088  1
  H  H835  1  0.00000000  0.50000000  0.09854015  1
  H  H836  1  0.00000000  0.50000000  0.10583942  1
  H  H837  1  0.00000000  0.50000000  0.11313869  1
  H  H838  1  0.00000000  0.50000000  0.12043796  1
  H  H839  1  0.00000000  0.50000000  0.12773723  1
  H  H840  1  0.00000000  0.50000000  0.13503650  1
  H  H841  1  0.00000000  0.50000000  0.14233577  1
  H  H842  1  0.00000000  0.50000000  0.14963504  1
  H  H843  1  0.00000000  0.50000000  0.15693431  1
  H  H844  1  0.00000000  0.50000000  0.16423358  1
  H  H845  1  0.00000000  0.50000000  0.17153285  1
  H  H846  1  0.00000000  0.50000000  0.17883212  1
  H  H847  1  0.00000000  0.50000000  0.18613139  1
  H  H848  1  0.00000000  0.50000000  0.19343066  1
  H  H849  1  0.00000000  0.50000000  0.20072993  1
  H  H850  1  0.00000000  0.50000000  0.20802920  1
  H  H851  1  0.00000000  0.50000000  0.21532847  1
  H  H852  1  0.00000000  0.50000000  0.22262774  1
  H  H853  1  0.00000000  0.50000000  0.22992701  1
  H  H854  1  0.00000000  0.50000000  0.23722628  1
  H  H855  1  0.00000000  0.50000000  0.24452555  1
  H  H856  1  0.00000000  0.50000000  0.25182482  1
  H  H857  1  0.00000000  0.50000000  0.25912409  1
  H  H858  1  0.00000000  0.50000000  0.26642336  1
  H  H859  1  0.00000000  0.50000000  0.27372263  1
  H  H860  1  0.00000000  0.50000000  0.28102190  1
  H  H861  1  0.00000000  0.50000000  0.28832117  1
  H  H862  1  0.00000000  0.50000000  0.29562044  1
  H  H863  1  0.00000000  0.50000000  0.30291971  1
  H  H864  1  0.00000000  0.50000000  0.31021898  1
  H  H865  1  0.00000000  0.50000000  0.31751825  1
  H  H866  1  0.00000000  0.50000000  0.32481752  1
  H  H867  1  0.00000000  0.50000000  0.33211679  1
  H  H868  1  0.00000000  0.50000000  0.33941606  1
  H  H869  1  0.00000000  0.50000000  0.34671533  1
  H  H870  1  0.00000000  0.50000000  0.35401460  1
  H  H871  1  0.00000000  0.50000000  0.36131387  1
  H  H872  1  0.00000000  0.50000000  0.36861314  1
  H  H873  1  0.00000000  0.50000000  0.37591241  1
  H  H874  1  0.00000000  0.50000000  0.38321168  1
  H  H875  1  0.00000000  0.50000000  0.39051095  1
  H  H876  1  0.00000000  0.50000000  0.39781022  1
  H  H877  1  0.00000000  0.50000000  0.40510949  1
  H  H878  1  0.00000000  0.50000000  0.41240876  1
  H  H879  1  0.00000000  0.50000000  0.41970803  1
  H  H880  1  0.00000000  0.50000000  0.42700730  1
  H  H881  1  0.00000000  0.50000000  0.43430657  1
  H  H882  1  0.00000000  0.50000000  0.44160584  1
  H  H883  1  0.00000000  0.50000000  0.44890511  1
  H  H884  1  0.00000000  0.50000000  0.45620438  1
  H  H885  1  0.00000000  0.50000000  0.46350365  1
  H  H886  1  0.00000000  0.50000000  0.47080292  1
  H  H887  1  0.00000000  0.50000000  0.47810219  1
  H  H888  1  0.00000000  0.50000000  0.48540146  1
  H  H889  1  0.00000000  0.50000000  0.49270073  1
  H  H890  1  0.00000000  0.50000000  0.50000000  1
  H  H891  1  0.00000000  0.50000000  0.50729927  1
  H  H892  1  0.00000000  0.50000000  0.51459854  1
  H  H893  1  0.00000000  0.50000000  0.52189781  1
  H  H894  1  0.00000000  0.50000000  0.52919708  1
  H  H895  1  0.00000000  0.50000000  0.53649635  1
  H  H896  1  0.00000000  0.50000000  0.54379562  1
  H  H897  1  0.00000000  0.50000000  0.55109489  1
  H  H898  1  0.00000000  0.50000000  0.55839416  1
  H  H899  1  0.00000000  0.50000000  0.56569343  1
  H  H900  1  0.00000000  0.50000000  0.57299270  1
  H  H901  1  0.00000000  0.50000000  0.58029197  1
  H  H902  1  0.00000000  0.50000000  0.58759124  1
  H  H903  1  0.00000000  0.50000000  0.59489051  1
  H  H904  1  0.00000000  0.50000000  0.60218978  1
  H  H905  1  0.00000000  0.50000000  0.60948905  1
  H  H906  1  0.00000000  0.50000000  0.61678832  1
  H  H907  1  0.00000000  0.50000000  0.62408759  1
  H  H908  1  0.00000000  0.50000000  0.63138686  1
  H  H909  1  0.00000000  0.50000000  0.63868613  1
  H  H910  1  0.00000000  0.50000000  0.64598540  1
  H  H911  1  0.00000000  0.50000000  0.65328467  1
  H  H912  1  0.00000000  0.50000000  0.66058394  1
  H  H913  1  0.00000000  0.50000000  0.66788321  1
  H  H914  1  0.00000000  0.50000000  0.67518248  1
  H  H915  1  0.00000000  0.50000000  0.68248175  1
  H  H916  1  0.00000000  0.50000000  0.68978102  1
  H  H917  1  0.00000000  0.50000000  0.69708029  1
  H  H918  1  0.00000000  0.50000000  0.70437956  1
  H  H919  1  0.00000000  0.50000000  0.71167883  1
  H  H920  1  0.00000000  0.50000000  0.71897810  1
  H  H921  1  0.00000000  0.50000000  0.72627737  1
  H  H922  1  0.00000000  0.50000000  0.73357664  1
  H  H923  1  0.00000000  0.50000000  0.74087591  1
  H  H924  1  0.00000000  0.50000000  0.74817518  1
  H  H925  1  0.00000000  0.50000000  0.75547445  1
  H  H926  1  0.00000000  0.50000000  0.76277372  1
  H  H927  1  0.00000000  0.50000000  0.77007299  1
  H  H928  1  0.00000000  0.50000000  0.77737226  1
  H  H929  1  0.00000000  0.50000000  0.78467153  1
  H  H930  1  0.00000000  0.50000000  0.79197080  1
  H  H931  1  0.00000000  0.50000000  0.79927007  1
  H  H932  1  0.00000000  0.50000000  0.80656934  1
  H  H933  1  0.00000000  0.50000000  0.81386861  1
  H  H934  1  0.00000000  0.50000000  0.82116788  1
  H  H935  1  0.00000000  0.50000000  0.82846715  1
  H  H936  1  0.00000000  0.50000000  0.83576642  1
  H  H937  1  0.00000000  0.50000000  0.84306569  1
  H  H938  1  0.00000000  0.50000000  0.85036496  1
  H  H939  1  0.00000000  0.50000000  0.85766423  1
  H  H940  1  0.00000000  0.50000000  0.86496350  1
  H  H941  1  0.00000000  0.50000000  0.87226277  1
  H  H942  1  0.00000000  0.50000000  0.87956204  1
  H  H943  1  0.00000000  0.50000000  0.88686131  1
  H  H944  1  0.00000000  0.50000000  0.89416058  1
  H  H945  1  0.00000000  0.50000000  0.90145985  1
  H  H946  1  0.00000000  0.50000000  0.90875912  1
  H  H947  1  0.00000000  0.50000000  0.91605839  1
  H  H948  1  0.00000000  0.50000000  0.92335766  1
  H  H949  1  0.00000000  0.50000000  0.93065693  1
  H  H950  1  0.00000000  0.50000000  0.93795620  1
  H  H951  1  0.00000000  0.50000000  0.94525547  1
  H  H952  1  0.00000000  0.50000000  0.95255474  1
  H  H953  1  0.00000000  0.50000000  0.95985401  1
  H  H954  1  0.00000000  0.50000000  0.96715328  1
  H  H955  1  0.00000000  0.50000000  0.97445255  1
  H  H956  1  0.00000000  0.50000000  0.98175182  1
  H  H957  1  0.00000000  0.50000000  0.98905109  1
  H  H958  1  0.00000000  0.50000000  0.99635036  1
  H  H959  1  0.25000000  0.25000000  0.00182482  1
  H  H960  1  0.25000000  0.25000000  0.00912409  1
  H  H961  1  0.25000000  0.25000000  0.01642336  1
  H  H962  1  0.25000000  0.25000000  0.02372263  1
  H  H963  1  0.25000000  0.25000000  0.03102190  1
  H  H964  1  0.25000000  0.25000000  0.03832117  1
  H  H965  1  0.25000000  0.25000000  0.04562044  1
  H  H966  1  0.25000000  0.25000000  0.05291971  1
  H  H967  1  0.25000000  0.25000000  0.06021898  1
  H  H968  1  0.25000000  0.25000000  0.06751825  1
  H  H969  1  0.25000000  0.25000000  0.07481752  1
  H  H970  1  0.25000000  0.25000000  0.08211679  1
  H  H971  1  0.25000000  0.25000000  0.08941606  1
  H  H972  1  0.25000000  0.25000000  0.09671533  1
  H  H973  1  0.25000000  0.25000000  0.10401460  1
  H  H974  1  0.25000000  0.25000000  0.11131387  1
  H  H975  1  0.25000000  0.25000000  0.11861314  1
  H  H976  1  0.25000000  0.25000000  0.12591241  1
  H  H977  1  0.25000000  0.25000000  0.13321168  1
  H  H978  1  0.25000000  0.25000000  0.14051095  1
  H  H979  1  0.25000000  0.25000000  0.14781022  1
  H  H980  1  0.25000000  0.25000000  0.15510949  1
  H  H981  1  0.25000000  0.25000000  0.16240876  1
  H  H982  1  0.25000000  0.25000000  0.16970803  1
  H  H983  1  0.25000000  0.25000000  0.17700730  1
  H  H984  1  0.25000000  0.25000000  0.18430657  1
  H  H985  1  0.25000000  0.25000000  0.19160584  1
  H  H986  1  0.25000000  0.25000000  0.19890511  1
  H  H987  1  0.25000000  0.25000000  0.20620438  1
  H  H988  1  0.25000000  0.25000000  0.21350365  1
  H  H989  1  0.25000000  0.25000000  0.22080292  1
  H  H990  1  0.25000000  0.25000000  0.22810219  1
  H  H991  1  0.25000000  0.25000000  0.23540146  1
  H  H992  1  0.25000000  0.25000000  0.24270073  1
  H  H993  1  0.25000000  0.25000000  0.25000000  1
  H  H994  1  0.25000000  0.25000000  0.25729927  1
  H  H995  1  0.25000000  0.25000000  0.26459854  1
  H  H996  1  0.25000000  0.25000000  0.27189781  1
  H  H997  1  0.25000000  0.25000000  0.27919708  1
  H  H998  1  0.25000000  0.25000000  0.28649635  1
  H  H999  1  0.25000000  0.25000000  0.29379562  1
  H  H1000  1  0.25000000  0.25000000  0.30109489  1
  H  H1001  1  0.25000000  0.25000000  0.30839416  1
  H  H1002  1  0.25000000  0.25000000  0.31569343  1
  H  H1003  1  0.25000000  0.25000000  0.32299270  1
  H  H1004  1  0.25000000  0.25000000  0.33029197  1
  H  H1005  1  0.25000000  0.25000000  0.33759124  1
  H  H1006  1  0.25000000  0.25000000  0.34489051  1
  H  H1007  1  0.25000000  0.25000000  0.35218978  1
  H  H1008  1  0.25000000  0.25000000  0.35948905  1
  H  H1009  1  0.25000000  0.25000000  0.36678832  1
  H  H1010  1  0.25000000  0.25000000  0.37408759  1
  H  H1011  1  0.25000000  0.25000000  0.38138686  1
  H  H1012  1  0.25000000  0.25000000  0.38868613  1
  H  H1013  1  0.25000000  0.25000000  0.39598540  1
  H  H1014  1  0.25000000  0.25000000  0.40328467  1
  H  H1015  1  0.25000000  0.25000000  0.41058394  1
  H  H1016  1  0.25000000  0.25000000  0.41788321  1
  H  H1017  1  0.25000000  0.25000000  0.42518248  1
  H  H1018  1  0.25000000  0.25000000  0.43248175  1
  H  H1019  1  0.25000000  0.25000000  0.43978102  1
  H  H1020  1  0.25000000  0.25000000  0.44708029  1
  H  H1021  1  0.25000000  0.25000000  0.45437956  1
  H  H1022  1  0.25000000  0.25000000  0.46167883  1
  H  H1023  1  0.25000000  0.25000000  0.46897810  1
  H  H1024  1  0.25000000  0.25000000  0.47627737  1
  H  H1025  1  0.25000000  0.25000000  0.48357664  1
  H  H1026  1  0.25000000  0.25000000  0.49087591  1
  H  H1027  1  0.25000000  0.25000000  0.49817518  1
  H  H1028  1  0.25000000  0.25000000  0.50547445  1
  H  H1029  1  0.25000000  0.25000000  0.51277372  1
  H  H1030  1  0.25000000  0.25000000  0.52007299  1
  H  H1031  1  0.25000000  0.25000000  0.52737226  1
  H  H1032  1  0.25000000  0.25000000  0.53467153  1
  H  H1033  1  0.25000000  0.25000000  0.54197080  1
  H  H1034  1  0.25000000  0.25000000  0.54927007  1
  H  H1035  1  0.25000000  0.25000000  0.55656934  1
  H  H1036  1  0.25000000  0.25000000  0.56386861  1
  H  H1037  1  0.25000000  0.25000000  0.57116788  1
  H  H1038  1  0.25000000  0.25000000  0.57846715  1
  H  H1039  1  0.25000000  0.25000000  0.58576642  1
  H  H1040  1  0.25000000  0.25000000  0.59306569  1
  H  H1041  1  0.25000000  0.25000000  0.60036496  1
  H  H1042  1  0.25000000  0.25000000  0.60766423  1
  H  H1043  1  0.25000000  0.25000000  0.61496350  1
  H  H1044  1  0.25000000  0.25000000  0.62226277  1
  H  H1045  1  0.25000000  0.25000000  0.62956204  1
  H  H1046  1  0.25000000  0.25000000  0.63686131  1
  H  H1047  1  0.25000000  0.25000000  0.64416058  1
  H  H1048  1  0.25000000  0.25000000  0.65145985  1
  H  H1049  1  0.25000000  0.25000000  0.65875912  1
  H  H1050  1  0.25000000  0.25000000  0.66605839  1
  H  H1051  1  0.25000000  0.25000000  0.67335766  1
  H  H1052  1  0.25000000  0.25000000  0.68065693  1
  H  H1053  1  0.25000000  0.25000000  0.68795620  1
  H  H1054  1  0.25000000  0.25000000  0.69525547  1
  H  H1055  1  0.25000000  0.25000000  0.70255474  1
  H  H1056  1  0.25000000  0.25000000  0.70985401  1
  H  H1057  1  0.25000000  0.25000000  0.71715328  1
  H  H1058  1  0.25000000  0.25000000  0.72445255  1
  H  H1059  1  0.25000000  0.25000000  0.73175182  1
  H  H1060  1  0.25000000  0.25000000  0.73905109  1
  H  H1061  1  0.25000000  0.25000000  0.74635036  1
  H  H1062  1  0.25000000  0.25000000  0.75364964  1
  H  H1063  1  0.25000000  0.25000000  0.76094891  1
  H  H1064  1  0.25000000  0.25000000  0.76824818  1
  H  H1065  1  0.25000000  0.25000000  0.77554745  1
  H  H1066  1  0.25000000  0.25000000  0.78284672  1
  H  H1067  1  0.25000000  0.25000000  0.79014599  1
  H  H1068  1  0.25000000  0.25000000  0.79744526  1
  H  H1069  1  0.25000000  0.25000000  0.80474453  1
  H  H1070  1  0.25000000  0.25000000  0.81204380  1
  H  H1071  1  0.25000000  0.25000000  0.81934307  1
  H  H1072  1  0.25000000  0.25000000  0.82664234  1
  H  H1073  1  0.25000000  0.25000000  0.83394161  1
  H  H1074  1  0.25000000  0.25000000  0.84124088  1
  H  H1075  1  0.25000000  0.25000000  0.84854015  1
  H  H1076  1  0.25000000  0.25000000  0.85583942  1
  H  H1077  1  0.25000000  0.25000000  0.86313869  1
  H  H1078  1  0.25000000  0.25000000  0.87043796  1
  H  H1079  1  0.25000000  0.25000000  0.87773723  1
  H  H1080  1  0.25000000  0.25000000  0.88503650  1
  H  H1081  1  0.25000000  0.25000000  0.89233577  1
  H  H1082  1  0.25000000  0.25000000  0.89963504  1
  H  H1083  1  0.25000000  0.25000000  0.90693431  1
  H  H1084  1  0.25000000  0.25000000  0.91423358  1
  H  H1085  1  0.25000000  0.25000000  0.92153285  1
  H  H1086  1  0.25000000  0.25000000  0.92883212  1
  H  H1087  1  0.25000000  0.25000000  0.93613139  1
  H  H1088  1  0.25000000  0.25000000  0.94343066  1
  H  H1089  1  0.25000000  0.25000000  0.95072993  1
  H  H1090  1  0.25000000  0.25000000  0.95802920  1
  H  H1091  1  0.25000000  0.25000000  0.96532847  1
  H  H1092  1  0.25000000  0.25000000  0.97262774  1
  H  H1093  1  0.25000000  0.25000000  0.97992701  1
  H  H1094  1  0.25000000  0.25000000  0.98722628  1
  H  H1095  1  0.25000000  0.25000000  0.99452555  1
  H  H1096  1  0.75000000  0.25000000  0.00182482  1
  H  H1097  1  0.75000000  0.25000000  0.00912409  1
  H  H1098  1  0.75000000  0.25000000  0.01642336  1
  H  H1099  1  0.75000000  0.25000000  0.02372263  1
  H  H1100  1  0.75000000  0.25000000  0.03102190  1
  H  H1101  1  0.75000000  0.25000000  0.03832117  1
  H  H1102  1  0.75000000  0.25000000  0.04562044  1
  H  H1103  1  0.75000000  0.25000000  0.05291971  1
  H  H1104  1  0.75000000  0.25000000  0.06021898  1
  H  H1105  1  0.75000000  0.25000000  0.06751825  1
  H  H1106  1  0.75000000  0.25000000  0.07481752  1
  H  H1107  1  0.75000000  0.25000000  0.08211679  1
  H  H1108  1  0.75000000  0.25000000  0.08941606  1
  H  H1109  1  0.75000000  0.25000000  0.09671533  1
  H  H1110  1  0.75000000  0.25000000  0.10401460  1
  H  H1111  1  0.75000000  0.25000000  0.11131387  1
  H  H1112  1  0.75000000  0.25000000  0.11861314  1
  H  H1113  1  0.75000000  0.25000000  0.12591241  1
  H  H1114  1  0.75000000  0.25000000  0.13321168  1
  H  H1115  1  0.75000000  0.25000000  0.14051095  1
  H  H1116  1  0.75000000  0.25000000  0.14781022  1
  H  H1117  1  0.75000000  0.25000000  0.15510949  1
  H  H1118  1  0.75000000  0.25000000  0.16240876  1
  H  H1119  1  0.75000000  0.25000000  0.16970803  1
  H  H1120  1  0.75000000  0.25000000  0.17700730  1
  H  H1121  1  0.75000000  0.25000000  0.18430657  1
  H  H1122  1  0.75000000  0.25000000  0.19160584  1
  H  H1123  1  0.75000000  0.25000000  0.19890511  1
  H  H1124  1  0.75000000  0.25000000  0.20620438  1
  H  H1125  1  0.75000000  0.25000000  0.21350365  1
  H  H1126  1  0.75000000  0.25000000  0.22080292  1
  H  H1127  1  0.75000000  0.25000000  0.22810219  1
  H  H1128  1  0.75000000  0.25000000  0.23540146  1
  H  H1129  1  0.75000000  0.25000000  0.24270073  1
  H  H1130  1  0.75000000  0.25000000  0.25000000  1
  H  H1131  1  0.75000000  0.25000000  0.25729927  1
  H  H1132  1  0.75000000  0.25000000  0.26459854  1
  H  H1133  1  0.75000000  0.25000000  0.27189781  1
  H  H1134  1  0.75000000  0.25000000  0.27919708  1
  H  H1135  1  0.75000000  0.25000000  0.28649635  1
  H  H1136  1  0.75000000  0.25000000  0.29379562  1
  H  H1137  1  0.75000000  0.25000000  0.30109489  1
  H  H1138  1  0.75000000  0.25000000  0.30839416  1
  H  H1139  1  0.75000000  0.25000000  0.31569343  1
  H  H1140  1  0.75000000  0.25000000  0.32299270  1
  H  H1141  1  0.75000000  0.25000000  0.33029197  1
  H  H1142  1  0.75000000  0.25000000  0.33759124  1
  H  H1143  1  0.75000000  0.25000000  0.34489051  1
  H  H1144  1  0.75000000  0.25000000  0.35218978  1
  H  H1145  1  0.75000000  0.25000000  0.35948905  1
  H  H1146  1  0.75000000  0.25000000  0.36678832  1
  H  H1147  1  0.75000000  0.25000000  0.37408759  1
  H  H1148  1  0.75000000  0.25000000  0.38138686  1
  H  H1149  1  0.75000000  0.25000000  0.38868613  1
  H  H1150  1  0.75000000  0.25000000  0.39598540  1
  H  H1151  1  0.75000000  0.25000000  0.40328467  1
  H  H1152  1  0.75000000  0.25000000  0.41058394  1
  H  H1153  1  0.75000000  0.25000000  0.41788321  1
  H  H1154  1  0.75000000  0.25000000  0.42518248  1
  H  H1155  1  0.75000000  0.25000000  0.43248175  1
  H  H1156  1  0.75000000  0.25000000  0.43978102  1
  H  H1157  1  0.75000000  0.25000000  0.44708029  1
  H  H1158  1  0.75000000  0.25000000  0.45437956  1
  H  H1159  1  0.75000000  0.25000000  0.46167883  1
  H  H1160  1  0.75000000  0.25000000  0.46897810  1
  H  H1161  1  0.75000000  0.25000000  0.47627737  1
  H  H1162  1  0.75000000  0.25000000  0.48357664  1
  H  H1163  1  0.75000000  0.25000000  0.49087591  1
  H  H1164  1  0.75000000  0.25000000  0.49817518  1
  H  H1165  1  0.75000000  0.25000000  0.50547445  1
  H  H1166  1  0.75000000  0.25000000  0.51277372  1
  H  H1167  1  0.75000000  0.25000000  0.52007299  1
  H  H1168  1  0.75000000  0.25000000  0.52737226  1
  H  H1169  1  0.75000000  0.25000000  0.53467153  1
  H  H1170  1  0.75000000  0.25000000  0.54197080  1
  H  H1171  1  0.75000000  0.25000000  0.54927007  1
  H  H1172  1  0.75000000  0.25000000  0.55656934  1
  H  H1173  1  0.75000000  0.25000000  0.56386861  1
  H  H1174  1  0.75000000  0.25000000  0.57116788  1
  H  H1175  1  0.75000000  0.25000000  0.57846715  1
  H  H1176  1  0.75000000  0.25000000  0.58576642  1
  H  H1177  1  0.75000000  0.25000000  0.59306569  1
  H  H1178  1  0.75000000  0.25000000  0.60036496  1
  H  H1179  1  0.75000000  0.25000000  0.60766423  1
  H  H1180  1  0.75000000  0.25000000  0.61496350  1
  H  H1181  1  0.75000000  0.25000000  0.62226277  1
  H  H1182  1  0.75000000  0.25000000  0.62956204  1
  H  H1183  1  0.75000000  0.25000000  0.63686131  1
  H  H1184  1  0.75000000  0.25000000  0.64416058  1
  H  H1185  1  0.75000000  0.25000000  0.65145985  1
  H  H1186  1  0.75000000  0.25000000  0.65875912  1
  H  H1187  1  0.75000000  0.25000000  0.66605839  1
  H  H1188  1  0.75000000  0.25000000  0.67335766  1
  H  H1189  1  0.75000000  0.25000000  0.68065693  1
  H  H1190  1  0.75000000  0.25000000  0.68795620  1
  H  H1191  1  0.75000000  0.25000000  0.69525547  1
  H  H1192  1  0.75000000  0.25000000  0.70255474  1
  H  H1193  1  0.75000000  0.25000000  0.70985401  1
  H  H1194  1  0.75000000  0.25000000  0.71715328  1
  H  H1195  1  0.75000000  0.25000000  0.72445255  1
  H  H1196  1  0.75000000  0.25000000  0.73175182  1
  H  H1197  1  0.75000000  0.25000000  0.73905109  1
  H  H1198  1  0.75000000  0.25000000  0.74635036  1
  H  H1199  1  0.75000000  0.25000000  0.75364964  1
  H  H1200  1  0.75000000  0.25000000  0.76094891  1
  H  H1201  1  0.75000000  0.25000000  0.76824818  1
  H  H1202  1  0.75000000  0.25000000  0.77554745  1
  H  H1203  1  0.75000000  0.25000000  0.78284672  1
  H  H1204  1  0.75000000  0.25000000  0.79014599  1
  H  H1205  1  0.75000000  0.25000000  0.79744526  1
  H  H1206  1  0.75000000  0.25000000  0.80474453  1
  H  H1207  1  0.75000000  0.25000000  0.81204380  1
  H  H1208  1  0.75000000  0.25000000  0.81934307  1
  H  H1209  1  0.75000000  0.25000000  0.82664234  1
  H  H1210  1  0.75000000  0.25000000  0.83394161  1
  H  H1211  1  0.75000000  0.25000000  0.84124088  1
  H  H1212  1  0.75000000  0.25000000  0.84854015  1
  H  H1213  1  0.75000000  0.25000000  0.85583942  1
  H  H1214  1  0.75000000  0.25000000  0.86313869  1
  H  H1215  1  0.75000000  0.25000000  0.87043796  1
  H  H1216  1  0.75000000  0.25000000  0.87773723  1
  H  H1217  1  0.75000000  0.25000000  0.88503650  1
  H  H1218  1  0.75000000  0.25000000  0.89233577  1
  H  H1219  1  0.75000000  0.25000000  0.89963504  1
  H  H1220  1  0.75000000  0.25000000  0.90693431  1
  H  H1221  1  0.75000000  0.25000000  0.91423358  1
  H  H1222  1  0.75000000  0.25000000  0.92153285  1
  H  H1223  1  0.75000000  0.25000000  0.92883212  1
  H  H1224  1  0.75000000  0.25000000  0.93613139  1
  H  H1225  1  0.75000000  0.25000000  0.94343066  1
  H  H1226  1  0.75000000  0.25000000  0.95072993  1
  H  H1227  1  0.75000000  0.25000000  0.95802920  1
  H  H1228  1  0.75000000  0.25000000  0.96532847  1
  H  H1229  1  0.75000000  0.25000000  0.97262774  1
  H  H1230  1  0.75000000  0.25000000  0.97992701  1
  H  H1231  1  0.75000000  0.25000000  0.98722628  1
  H  H1232  1  0.75000000  0.25000000  0.99452555  1
  H  H1233  1  0.25000000  0.75000000  0.00182482  1
  H  H1234  1  0.25000000  0.75000000  0.00912409  1
  H  H1235  1  0.25000000  0.75000000  0.01642336  1
  H  H1236  1  0.25000000  0.75000000  0.02372263  1
  H  H1237  1  0.25000000  0.75000000  0.03102190  1
  H  H1238  1  0.25000000  0.75000000  0.03832117  1
  H  H1239  1  0.25000000  0.75000000  0.04562044  1
  H  H1240  1  0.25000000  0.75000000  0.05291971  1
  H  H1241  1  0.25000000  0.75000000  0.06021898  1
  H  H1242  1  0.25000000  0.75000000  0.06751825  1
  H  H1243  1  0.25000000  0.75000000  0.07481752  1
  H  H1244  1  0.25000000  0.75000000  0.08211679  1
  H  H1245  1  0.25000000  0.75000000  0.08941606  1
  H  H1246  1  0.25000000  0.75000000  0.09671533  1
  H  H1247  1  0.25000000  0.75000000  0.10401460  1
  H  H1248  1  0.25000000  0.75000000  0.11131387  1
  H  H1249  1  0.25000000  0.75000000  0.11861314  1
  H  H1250  1  0.25000000  0.75000000  0.12591241  1
  H  H1251  1  0.25000000  0.75000000  0.13321168  1
  H  H1252  1  0.25000000  0.75000000  0.14051095  1
  H  H1253  1  0.25000000  0.75000000  0.14781022  1
  H  H1254  1  0.25000000  0.75000000  0.15510949  1
  H  H1255  1  0.25000000  0.75000000  0.16240876  1
  H  H1256  1  0.25000000  0.75000000  0.16970803  1
  H  H1257  1  0.25000000  0.75000000  0.17700730  1
  H  H1258  1  0.25000000  0.75000000  0.18430657  1
  H  H1259  1  0.25000000  0.75000000  0.19160584  1
  H  H1260  1  0.25000000  0.75000000  0.19890511  1
  H  H1261  1  0.25000000  0.75000000  0.20620438  1
  H  H1262  1  0.25000000  0.75000000  0.21350365  1
  H  H1263  1  0.25000000  0.75000000  0.22080292  1
  H  H1264  1  0.25000000  0.75000000  0.22810219  1
  H  H1265  1  0.25000000  0.75000000  0.23540146  1
  H  H1266  1  0.25000000  0.75000000  0.24270073  1
  H  H1267  1  0.25000000  0.75000000  0.25000000  1
  H  H1268  1  0.25000000  0.75000000  0.25729927  1
  H  H1269  1  0.25000000  0.75000000  0.26459854  1
  H  H1270  1  0.25000000  0.75000000  0.27189781  1
  H  H1271  1  0.25000000  0.75000000  0.27919708  1
  H  H1272  1  0.25000000  0.75000000  0.28649635  1
  H  H1273  1  0.25000000  0.75000000  0.29379562  1
  H  H1274  1  0.25000000  0.75000000  0.30109489  1
  H  H1275  1  0.25000000  0.75000000  0.30839416  1
  H  H1276  1  0.25000000  0.75000000  0.31569343  1
  H  H1277  1  0.25000000  0.75000000  0.32299270  1
  H  H1278  1  0.25000000  0.75000000  0.33029197  1
  H  H1279  1  0.25000000  0.75000000  0.33759124  1
  H  H1280  1  0.25000000  0.75000000  0.34489051  1
  H  H1281  1  0.25000000  0.75000000  0.35218978  1
  H  H1282  1  0.25000000  0.75000000  0.35948905  1
  H  H1283  1  0.25000000  0.75000000  0.36678832  1
  H  H1284  1  0.25000000  0.75000000  0.37408759  1
  H  H1285  1  0.25000000  0.75000000  0.38138686  1
  H  H1286  1  0.25000000  0.75000000  0.38868613  1
  H  H1287  1  0.25000000  0.75000000  0.39598540  1
  H  H1288  1  0.25000000  0.75000000  0.40328467  1
  H  H1289  1  0.25000000  0.75000000  0.41058394  1
  H  H1290  1  0.25000000  0.75000000  0.41788321  1
  H  H1291  1  0.25000000  0.75000000  0.42518248  1
  H  H1292  1  0.25000000  0.75000000  0.43248175  1
  H  H1293  1  0.25000000  0.75000000  0.43978102  1
  H  H1294  1  0.25000000  0.75000000  0.44708029  1
  H  H1295  1  0.25000000  0.75000000  0.45437956  1
  H  H1296  1  0.25000000  0.75000000  0.46167883  1
  H  H1297  1  0.25000000  0.75000000  0.46897810  1
  H  H1298  1  0.25000000  0.75000000  0.47627737  1
  H  H1299  1  0.25000000  0.75000000  0.48357664  1
  H  H1300  1  0.25000000  0.75000000  0.49087591  1
  H  H1301  1  0.25000000  0.75000000  0.49817518  1
  H  H1302  1  0.25000000  0.75000000  0.50547445  1
  H  H1303  1  0.25000000  0.75000000  0.51277372  1
  H  H1304  1  0.25000000  0.75000000  0.52007299  1
  H  H1305  1  0.25000000  0.75000000  0.52737226  1
  H  H1306  1  0.25000000  0.75000000  0.53467153  1
  H  H1307  1  0.25000000  0.75000000  0.54197080  1
  H  H1308  1  0.25000000  0.75000000  0.54927007  1
  H  H1309  1  0.25000000  0.75000000  0.55656934  1
  H  H1310  1  0.25000000  0.75000000  0.56386861  1
  H  H1311  1  0.25000000  0.75000000  0.57116788  1
  H  H1312  1  0.25000000  0.75000000  0.57846715  1
  H  H1313  1  0.25000000  0.75000000  0.58576642  1
  H  H1314  1  0.25000000  0.75000000  0.59306569  1
  H  H1315  1  0.25000000  0.75000000  0.60036496  1
  H  H1316  1  0.25000000  0.75000000  0.60766423  1
  H  H1317  1  0.25000000  0.75000000  0.61496350  1
  H  H1318  1  0.25000000  0.75000000  0.62226277  1
  H  H1319  1  0.25000000  0.75000000  0.62956204  1
  H  H1320  1  0.25000000  0.75000000  0.63686131  1
  H  H1321  1  0.25000000  0.75000000  0.64416058  1
  H  H1322  1  0.25000000  0.75000000  0.65145985  1
  H  H1323  1  0.25000000  0.75000000  0.65875912  1
  H  H1324  1  0.25000000  0.75000000  0.66605839  1
  H  H1325  1  0.25000000  0.75000000  0.67335766  1
  H  H1326  1  0.25000000  0.75000000  0.68065693  1
  H  H1327  1  0.25000000  0.75000000  0.68795620  1
  H  H1328  1  0.25000000  0.75000000  0.69525547  1
  H  H1329  1  0.25000000  0.75000000  0.70255474  1
  H  H1330  1  0.25000000  0.75000000  0.70985401  1
  H  H1331  1  0.25000000  0.75000000  0.71715328  1
  H  H1332  1  0.25000000  0.75000000  0.72445255  1
  H  H1333  1  0.25000000  0.75000000  0.73175182  1
  H  H1334  1  0.25000000  0.75000000  0.73905109  1
  H  H1335  1  0.25000000  0.75000000  0.74635036  1
  H  H1336  1  0.25000000  0.75000000  0.75364964  1
  H  H1337  1  0.25000000  0.75000000  0.76094891  1
  H  H1338  1  0.25000000  0.75000000  0.76824818  1
  H  H1339  1  0.25000000  0.75000000  0.77554745  1
  H  H1340  1  0.25000000  0.75000000  0.78284672  1
  H  H1341  1  0.25000000  0.75000000  0.79014599  1
  H  H1342  1  0.25000000  0.75000000  0.79744526  1
  H  H1343  1  0.25000000  0.75000000  0.80474453  1
  H  H1344  1  0.25000000  0.75000000  0.81204380  1
  H  H1345  1  0.25000000  0.75000000  0.81934307  1
  H  H1346  1  0.25000000  0.75000000  0.82664234  1
  H  H1347  1  0.25000000  0.75000000  0.83394161  1
  H  H1348  1  0.25000000  0.75000000  0.84124088  1
  H  H1349  1  0.25000000  0.75000000  0.84854015  1
  H  H1350  1  0.25000000  0.75000000  0.85583942  1
  H  H1351  1  0.25000000  0.75000000  0.86313869  1
  H  H1352  1  0.25000000  0.75000000  0.87043796  1
  H  H1353  1  0.25000000  0.75000000  0.87773723  1
  H  H1354  1  0.25000000  0.75000000  0.88503650  1
  H  H1355  1  0.25000000  0.75000000  0.89233577  1
  H  H1356  1  0.25000000  0.75000000  0.89963504  1
  H  H1357  1  0.25000000  0.75000000  0.90693431  1
  H  H1358  1  0.25000000  0.75000000  0.91423358  1
  H  H1359  1  0.25000000  0.75000000  0.92153285  1
  H  H1360  1  0.25000000  0.75000000  0.92883212  1
  H  H1361  1  0.25000000  0.75000000  0.93613139  1
  H  H1362  1  0.25000000  0.75000000  0.94343066  1
  H  H1363  1  0.25000000  0.75000000  0.95072993  1
  H  H1364  1  0.25000000  0.75000000  0.95802920  1
  H  H1365  1  0.25000000  0.75000000  0.96532847  1
  H  H1366  1  0.25000000  0.75000000  0.97262774  1
  H  H1367  1  0.25000000  0.75000000  0.97992701  1
  H  H1368  1  0.25000000  0.75000000  0.98722628  1
  H  H1369  1  0.25000000  0.75000000  0.99452555  1
  H  H1370  1  0.25000000  0.25000000  0.00547445  1
  H  H1371  1  0.25000000  0.25000000  0.01277372  1
  H  H1372  1  0.25000000  0.25000000  0.02007299  1
  H  H1373  1  0.25000000  0.25000000  0.02737226  1
  H  H1374  1  0.25000000  0.25000000  0.03467153  1
  H  H1375  1  0.25000000  0.25000000  0.04197080  1
  H  H1376  1  0.25000000  0.25000000  0.04927007  1
  H  H1377  1  0.25000000  0.25000000  0.05656934  1
  H  H1378  1  0.25000000  0.25000000  0.06386861  1
  H  H1379  1  0.25000000  0.25000000  0.07116788  1
  H  H1380  1  0.25000000  0.25000000  0.07846715  1
  H  H1381  1  0.25000000  0.25000000  0.08576642  1
  H  H1382  1  0.25000000  0.25000000  0.09306569  1
  H  H1383  1  0.25000000  0.25000000  0.10036496  1
  H  H1384  1  0.25000000  0.25000000  0.10766423  1
  H  H1385  1  0.25000000  0.25000000  0.11496350  1
  H  H1386  1  0.25000000  0.25000000  0.12226277  1
  H  H1387  1  0.25000000  0.25000000  0.12956204  1
  H  H1388  1  0.25000000  0.25000000  0.13686131  1
  H  H1389  1  0.25000000  0.25000000  0.14416058  1
  H  H1390  1  0.25000000  0.25000000  0.15145985  1
  H  H1391  1  0.25000000  0.25000000  0.15875912  1
  H  H1392  1  0.25000000  0.25000000  0.16605839  1
  H  H1393  1  0.25000000  0.25000000  0.17335766  1
  H  H1394  1  0.25000000  0.25000000  0.18065693  1
  H  H1395  1  0.25000000  0.25000000  0.18795620  1
  H  H1396  1  0.25000000  0.25000000  0.19525547  1
  H  H1397  1  0.25000000  0.25000000  0.20255474  1
  H  H1398  1  0.25000000  0.25000000  0.20985401  1
  H  H1399  1  0.25000000  0.25000000  0.21715328  1
  H  H1400  1  0.25000000  0.25000000  0.22445255  1
  H  H1401  1  0.25000000  0.25000000  0.23175182  1
  H  H1402  1  0.25000000  0.25000000  0.23905109  1
  H  H1403  1  0.25000000  0.25000000  0.24635036  1
  H  H1404  1  0.25000000  0.25000000  0.25364964  1
  H  H1405  1  0.25000000  0.25000000  0.26094891  1
  H  H1406  1  0.25000000  0.25000000  0.26824818  1
  H  H1407  1  0.25000000  0.25000000  0.27554745  1
  H  H1408  1  0.25000000  0.25000000  0.28284672  1
  H  H1409  1  0.25000000  0.25000000  0.29014599  1
  H  H1410  1  0.25000000  0.25000000  0.29744526  1
  H  H1411  1  0.25000000  0.25000000  0.30474453  1
  H  H1412  1  0.25000000  0.25000000  0.31204380  1
  H  H1413  1  0.25000000  0.25000000  0.31934307  1
  H  H1414  1  0.25000000  0.25000000  0.32664234  1
  H  H1415  1  0.25000000  0.25000000  0.33394161  1
  H  H1416  1  0.25000000  0.25000000  0.34124088  1
  H  H1417  1  0.25000000  0.25000000  0.34854015  1
  H  H1418  1  0.25000000  0.25000000  0.35583942  1
  H  H1419  1  0.25000000  0.25000000  0.36313869  1
  H  H1420  1  0.25000000  0.25000000  0.37043796  1
  H  H1421  1  0.25000000  0.25000000  0.37773723  1
  H  H1422  1  0.25000000  0.25000000  0.38503650  1
  H  H1423  1  0.25000000  0.25000000  0.39233577  1
  H  H1424  1  0.25000000  0.25000000  0.39963504  1
  H  H1425  1  0.25000000  0.25000000  0.40693431  1
  H  H1426  1  0.25000000  0.25000000  0.41423358  1
  H  H1427  1  0.25000000  0.25000000  0.42153285  1
  H  H1428  1  0.25000000  0.25000000  0.42883212  1
  H  H1429  1  0.25000000  0.25000000  0.43613139  1
  H  H1430  1  0.25000000  0.25000000  0.44343066  1
  H  H1431  1  0.25000000  0.25000000  0.45072993  1
  H  H1432  1  0.25000000  0.25000000  0.45802920  1
  H  H1433  1  0.25000000  0.25000000  0.46532847  1
  H  H1434  1  0.25000000  0.25000000  0.47262774  1
  H  H1435  1  0.25000000  0.25000000  0.47992701  1
  H  H1436  1  0.25000000  0.25000000  0.48722628  1
  H  H1437  1  0.25000000  0.25000000  0.49452555  1
  H  H1438  1  0.25000000  0.25000000  0.50182482  1
  H  H1439  1  0.25000000  0.25000000  0.50912409  1
  H  H1440  1  0.25000000  0.25000000  0.51642336  1
  H  H1441  1  0.25000000  0.25000000  0.52372263  1
  H  H1442  1  0.25000000  0.25000000  0.53102190  1
  H  H1443  1  0.25000000  0.25000000  0.53832117  1
  H  H1444  1  0.25000000  0.25000000  0.54562044  1
  H  H1445  1  0.25000000  0.25000000  0.55291971  1
  H  H1446  1  0.25000000  0.25000000  0.56021898  1
  H  H1447  1  0.25000000  0.25000000  0.56751825  1
  H  H1448  1  0.25000000  0.25000000  0.57481752  1
  H  H1449  1  0.25000000  0.25000000  0.58211679  1
  H  H1450  1  0.25000000  0.25000000  0.58941606  1
  H  H1451  1  0.25000000  0.25000000  0.59671533  1
  H  H1452  1  0.25000000  0.25000000  0.60401460  1
  H  H1453  1  0.25000000  0.25000000  0.61131387  1
  H  H1454  1  0.25000000  0.25000000  0.61861314  1
  H  H1455  1  0.25000000  0.25000000  0.62591241  1
  H  H1456  1  0.25000000  0.25000000  0.63321168  1
  H  H1457  1  0.25000000  0.25000000  0.64051095  1
  H  H1458  1  0.25000000  0.25000000  0.64781022  1
  H  H1459  1  0.25000000  0.25000000  0.65510949  1
  H  H1460  1  0.25000000  0.25000000  0.66240876  1
  H  H1461  1  0.25000000  0.25000000  0.66970803  1
  H  H1462  1  0.25000000  0.25000000  0.67700730  1
  H  H1463  1  0.25000000  0.25000000  0.68430657  1
  H  H1464  1  0.25000000  0.25000000  0.69160584  1
  H  H1465  1  0.25000000  0.25000000  0.69890511  1
  H  H1466  1  0.25000000  0.25000000  0.70620438  1
  H  H1467  1  0.25000000  0.25000000  0.71350365  1
  H  H1468  1  0.25000000  0.25000000  0.72080292  1
  H  H1469  1  0.25000000  0.25000000  0.72810219  1
  H  H1470  1  0.25000000  0.25000000  0.73540146  1
  H  H1471  1  0.25000000  0.25000000  0.74270073  1
  H  H1472  1  0.25000000  0.25000000  0.75000000  1
  H  H1473  1  0.25000000  0.25000000  0.75729927  1
  H  H1474  1  0.25000000  0.25000000  0.76459854  1
  H  H1475  1  0.25000000  0.25000000  0.77189781  1
  H  H1476  1  0.25000000  0.25000000  0.77919708  1
  H  H1477  1  0.25000000  0.25000000  0.78649635  1
  H  H1478  1  0.25000000  0.25000000  0.79379562  1
  H  H1479  1  0.25000000  0.25000000  0.80109489  1
  H  H1480  1  0.25000000  0.25000000  0.80839416  1
  H  H1481  1  0.25000000  0.25000000  0.81569343  1
  H  H1482  1  0.25000000  0.25000000  0.82299270  1
  H  H1483  1  0.25000000  0.25000000  0.83029197  1
  H  H1484  1  0.25000000  0.25000000  0.83759124  1
  H  H1485  1  0.25000000  0.25000000  0.84489051  1
  H  H1486  1  0.25000000  0.25000000  0.85218978  1
  H  H1487  1  0.25000000  0.25000000  0.85948905  1
  H  H1488  1  0.25000000  0.25000000  0.86678832  1
  H  H1489  1  0.25000000  0.25000000  0.87408759  1
  H  H1490  1  0.25000000  0.25000000  0.88138686  1
  H  H1491  1  0.25000000  0.25000000  0.88868613  1
  H  H1492  1  0.25000000  0.25000000  0.89598540  1
  H  H1493  1  0.25000000  0.25000000  0.90328467  1
  H  H1494  1  0.25000000  0.25000000  0.91058394  1
  H  H1495  1  0.25000000  0.25000000  0.91788321  1
  H  H1496  1  0.25000000  0.25000000  0.92518248  1
  H  H1497  1  0.25000000  0.25000000  0.93248175  1
  H  H1498  1  0.25000000  0.25000000  0.93978102  1
  H  H1499  1  0.25000000  0.25000000  0.94708029  1
  H  H1500  1  0.25000000  0.25000000  0.95437956  1
  H  H1501  1  0.25000000  0.25000000  0.96167883  1
  H  H1502  1  0.25000000  0.25000000  0.96897810  1
  H  H1503  1  0.25000000  0.25000000  0.97627737  1
  H  H1504  1  0.25000000  0.25000000  0.98357664  1
  H  H1505  1  0.25000000  0.25000000  0.99087591  1
  H  H1506  1  0.25000000  0.25000000  0.99817518  1
